#override RESOLN_SCALED_KHTR = True
#override KH_RES_FN_POWER = 100
#override VISC_RES_FN_POWER = 100
#override MIN_THICKNESS = 1.e-6
SAVE_INITIAL_CONDS = True
DEBUG = False
DEBUG_BT = False
!VERBOSITY = 9
#override ENERGYSAVEDAYS = 0.05
#override OBC_RAD_VEL_WT = 1.0            !   [nondim] default = 0.3
