! Continuous isopycnal mode + initialization
USE_REGRIDDING = True
REGRIDDING_COORDINATE_MODE = "Z*"
INTERPOLATION_SCHEME = "PPM_IH4"
BOUNDARY_EXTRAPOLATION = True
REMAPPING_SCHEME = "PPM_IH4"
SPONGE = True
SPONGE_CONFIG = "DUMBBELL"
DUMBBELL_SPONGE_TIME_SCALE = 8.64e4
DUMBBELL_ROTATION = True
#override NIGLOBAL = 20
#override NJGLOBAL = 120
#override SOUTHLAT = -300.0
#override WESTLON = -50.0
#override LENLAT = 600.0
#override LENLON = 100.0
#override FIRST_DIRECTION = 1
! #override DAYMAX = 30.
Z_RESCALE_POWER = 25
L_RESCALE_POWER = -21
T_RESCALE_POWER = -41
R_RESCALE_POWER = 14
Q_RESCALE_POWER = 23
H_RESCALE_POWER = 103
C_RESCALE_POWER = -31
S_RESCALE_POWER = 37
