#override CGRID_ICE_DYNAMICS = True
#override DO_ICEBERGS = False
#override ICE_OCEAN_STRESS_STAGGER = "C"
#override REENTRANT_X = False
#override REENTRANT_Y = False
#override NIGLOBAL = 10
#override NJGLOBAL = 10
! === module MOM_open_boundary ===
OBC_NUMBER_OF_SEGMENTS = 4      ! default = 0
                                ! The number of open boundary segments.
OBC_ZERO_BIHARMONIC = True      !   [Boolean] default = False
                                ! If true, zeros the Laplacian of flow on open boundaries in the biharmonic
                                ! viscosity term.
OBC_SEGMENT_001 = "I=N,J=0:N,FLATHER" !
OBC_SEGMENT_002 = "I=0,J=N:0,FLATHER" !
OBC_SEGMENT_003 = "J=N,I=N:0,FLATHER" !
OBC_SEGMENT_004 = "J=0,I=0:N,FLATHER" !
