! Blank file in which we can put "overrides" for parameters
!#override NK=2
#override THICKNESS_CONFIG = "circle_obcs"
DISK_RADIUS = 50.0              !   [k]
DISK_X_OFFSET = -100.           !   [k]
#override NJGLOBAL = 360                  !
#override LENLAT = 1440.0                 !   [k]
