! This file was written by the model and records all non-layout or debugging parameters used at run-time.


! === module MOM ===
SPLIT = True                    !   [Boolean] default = True
                                ! Use the split time stepping if true.
CALC_RHO_FOR_SEA_LEVEL = False  !   [Boolean] default = False
                                ! If true, the in-situ density is used to calculate the effective sea level that
                                ! is returned to the coupler. If false, the Boussinesq parameter RHO_0 is used.
ENABLE_THERMODYNAMICS = True    !   [Boolean] default = True
                                ! If true, Temperature and salinity are used as state variables.
USE_EOS = True                  !   [Boolean] default = True
                                ! If true,  density is calculated from temperature and salinity with an equation
                                ! of state.  If USE_EOS is true, ENABLE_THERMODYNAMICS must be true as well.
DIABATIC_FIRST = False          !   [Boolean] default = False
                                ! If true, apply diabatic and thermodynamic processes, including buoyancy
                                ! forcing and mass gain or loss, before stepping the dynamics forward.
USE_CONTEMP_ABSSAL = False      !   [Boolean] default = False
                                ! If true, the prognostics T&S are the conservative temperature and absolute
                                ! salinity. Care should be taken to convert them to potential temperature and
                                ! practical salinity before exchanging them with the coupler and/or reporting
                                ! T&S diagnostics.
ADIABATIC = False               !   [Boolean] default = False
                                ! There are no diapycnal mass fluxes if ADIABATIC is true. This assumes that KD
                                ! = KDML = 0.0 and that there is no buoyancy forcing, but makes the model faster
                                ! by eliminating subroutine calls.
DO_DYNAMICS = True              !   [Boolean] default = True
                                ! If False, skips the dynamics calls that update u & v, as well as the gravity
                                ! wave adjustment to h. This may be a fragile feature, but can be useful during
                                ! development
OFFLINE_TRACER_MODE = False     !   [Boolean] default = False
                                ! If true, barotropic and baroclinic dynamics, thermodynamics are all bypassed
                                ! with all the fields necessary to integrate the tracer advection and diffusion
                                ! equation are read in from files stored from a previous integration of the
                                ! prognostic model. NOTE: This option only used in the ocean_solo_driver.
USE_REGRIDDING = True           !   [Boolean] default = False
                                ! If True, use the ALE algorithm (regridding/remapping). If False, use the
                                ! layered isopycnal algorithm.
BULKMIXEDLAYER = False          !   [Boolean] default = False
                                ! If true, use a Kraus-Turner-like bulk mixed layer with transitional buffer
                                ! layers.  Layers 1 through NKML+NKBL have variable densities. There must be at
                                ! least NKML+NKBL+1 layers if BULKMIXEDLAYER is true. BULKMIXEDLAYER can not be
                                ! used with USE_REGRIDDING. The default is influenced by ENABLE_THERMODYNAMICS.
THICKNESSDIFFUSE = False        !   [Boolean] default = False
                                ! If true, interface heights are diffused with a coefficient of KHTH.
THICKNESSDIFFUSE_FIRST = False  !   [Boolean] default = False
                                ! If true, do thickness diffusion before dynamics. This is only used if
                                ! THICKNESSDIFFUSE is true.
BATHYMETRY_AT_VEL = False       !   [Boolean] default = False
                                ! If true, there are separate values for the basin depths at velocity points.
                                ! Otherwise the effects of topography are entirely determined from thickness
                                ! points.
DT = 300.0                      !   [s]
                                ! The (baroclinic) dynamics time step.  The time-step that is actually used will
                                ! be an integer fraction of the forcing time-step (DT_FORCING in ocean-only mode
                                ! or the coupling timestep in coupled mode.)
DT_THERM = 300.0                !   [s] default = 300.0
                                ! The thermodynamic and tracer advection time step. Ideally DT_THERM should be
                                ! an integer multiple of DT and less than the forcing or coupling time-step,
                                ! unless THERMO_SPANS_COUPLING is true, in which case DT_THERM can be an integer
                                ! multiple of the coupling timestep.  By default DT_THERM is set to DT.
THERMO_SPANS_COUPLING = False   !   [Boolean] default = False
                                ! If true, the MOM will take thermodynamic and tracer timesteps that can be
                                ! longer than the coupling timestep. The actual thermodynamic timestep that is
                                ! used in this case is the largest integer multiple of the coupling timestep
                                ! that is less than or equal to DT_THERM.
HMIX_SFC_PROP = 1.0             !   [m] default = 1.0
                                ! If BULKMIXEDLAYER is false, HMIX_SFC_PROP is the depth over which to average
                                ! to find surface properties like SST and SSS or density (but not surface
                                ! velocities).
HMIX_UV_SFC_PROP = 0.0          !   [m] default = 0.0
                                ! If BULKMIXEDLAYER is false, HMIX_UV_SFC_PROP is the depth over which to
                                ! average to find surface flow properties, SSU, SSV. A non-positive value
                                ! indicates no averaging.
HFREEZE = -1.0                  !   [m] default = -1.0
                                ! If HFREEZE > 0, melt potential will be computed. The actual depth over which
                                ! melt potential is computed will be min(HFREEZE, OBLD), where OBLD is the
                                ! boundary layer depth. If HFREEZE <= 0 (default), melt potential will not be
                                ! computed.
INTERPOLATE_P_SURF = False      !   [Boolean] default = False
                                ! If true, linearly interpolate the surface pressure over the coupling time
                                ! step, using the specified value at the end of the step.
DTBT_RESET_PERIOD = -1.0        !   [s] default = -1.0
                                ! The period between recalculations of DTBT (if DTBT <= 0). If DTBT_RESET_PERIOD
                                ! is negative, DTBT is set based only on information available at
                                ! initialization.  If 0, DTBT will be set every dynamics time step. The default
                                ! is set by DT_THERM.  This is only used if SPLIT is true.
FRAZIL = False                  !   [Boolean] default = False
                                ! If true, water freezes if it gets too cold, and the accumulated heat deficit
                                ! is returned in the surface state.  FRAZIL is only used if
                                ! ENABLE_THERMODYNAMICS is true.
DO_GEOTHERMAL = False           !   [Boolean] default = False
                                ! If true, apply geothermal heating.
BOUND_SALINITY = False          !   [Boolean] default = False
                                ! If true, limit salinity to being positive. (The sea-ice model may ask for more
                                ! salt than is available and drive the salinity negative otherwise.)
C_P = 3925.0                    !   [J kg-1 K-1] default = 3991.86795711963
                                ! The heat capacity of sea water, approximated as a constant. This is only used
                                ! if ENABLE_THERMODYNAMICS is true. The default value is from the TEOS-10
                                ! definition of conservative temperature.
USE_PSURF_IN_EOS = True         !   [Boolean] default = True
                                ! If true, always include the surface pressure contributions in equation of
                                ! state calculations.
P_REF = 2.0E+07                 !   [Pa] default = 2.0E+07
                                ! The pressure that is used for calculating the coordinate density.  (1 Pa = 1e4
                                ! dbar, so 2e7 is commonly used.) This is only used if USE_EOS and
                                ! ENABLE_THERMODYNAMICS are true.
FIRST_DIRECTION = 0             ! default = 0
                                ! An integer that indicates which direction goes first in parts of the code that
                                ! use directionally split updates, with even numbers (or 0) used for x- first
                                ! and odd numbers used for y-first.
CHECK_BAD_SURFACE_VALS = False  !   [Boolean] default = False
                                ! If true, check the surface state for ridiculous values.
DEFAULT_2018_ANSWERS = False    !   [Boolean] default = False
                                ! This sets the default value for the various _2018_ANSWERS parameters.
SURFACE_2018_ANSWERS = False    !   [Boolean] default = False
                                ! If true, use expressions for the surface properties that recover the answers
                                ! from the end of 2018. Otherwise, use more appropriate expressions that differ
                                ! at roundoff for non-Boussinesq cases.
SAVE_INITIAL_CONDS = True       !   [Boolean] default = False
                                ! If true, write the initial conditions to a file given by IC_OUTPUT_FILE.
IC_OUTPUT_FILE = "MOM_IC"       ! default = "MOM_IC"
                                ! The file into which to write the initial conditions.
WRITE_GEOM = 1                  ! default = 1
                                ! If =0, never write the geometry and vertical grid files. If =1, write the
                                ! geometry and vertical grid files only for a new simulation. If =2, always
                                ! write the geometry and vertical grid files. Other values are invalid.
ENSEMBLE_OCEAN = False          !   [Boolean] default = False
                                ! If False, The model is being run in serial mode as a single realization. If
                                ! True, The current model realization is part of a larger ensemble and at the
                                ! end of step MOM, we will perform a gather of the ensemble members for
                                ! statistical evaluation and/or data assimilation.

! === module MOM_domains ===
REENTRANT_X = False             !   [Boolean] default = True
                                ! If true, the domain is zonally reentrant.
REENTRANT_Y = False             !   [Boolean] default = False
                                ! If true, the domain is meridionally reentrant.
TRIPOLAR_N = False              !   [Boolean] default = False
                                ! Use tripolar connectivity at the northern edge of the domain.  With
                                ! TRIPOLAR_N, NIGLOBAL must be even.
NIGLOBAL = 40                   !
                                ! The total number of thickness grid points in the x-direction in the physical
                                ! domain. With STATIC_MEMORY_ this is set in MOM_memory.h at compile time.
NJGLOBAL = 20                   !
                                ! The total number of thickness grid points in the y-direction in the physical
                                ! domain. With STATIC_MEMORY_ this is set in MOM_memory.h at compile time.
NIHALO = 3                      ! default = 4
                                ! The number of halo points on each side in the x-direction.  How this is set
                                ! varies with the calling component and static or dynamic memory configuration.
NJHALO = 3                      ! default = 4
                                ! The number of halo points on each side in the y-direction.  How this is set
                                ! varies with the calling component and static or dynamic memory configuration.

! === module MOM_hor_index ===
! Sets the horizontal array index types.

! === module MOM_fixed_initialization ===
INPUTDIR = "."                  ! default = "."
                                ! The directory in which input files are found.

! === module MOM_grid_init ===
GRID_CONFIG = "cartesian"       !
                                ! A character string that determines the method for defining the horizontal
                                ! grid.  Current options are:
                                !     mosaic - read the grid from a mosaic (supergrid)
                                !              file set by GRID_FILE.
                                !     cartesian - use a (flat) Cartesian grid.
                                !     spherical - use a simple spherical grid.
                                !     mercator - use a Mercator spherical grid.
AXIS_UNITS = "k"                ! default = "degrees"
                                ! The units for the Cartesian axes. Valid entries are:
                                !     degrees - degrees of latitude and longitude
                                !     m - meters
                                !     k - kilometers
SOUTHLAT = -50.0                !   [k]
                                ! The southern latitude of the domain or the equivalent starting value for the
                                ! y-axis.
LENLAT = 100.0                  !   [k]
                                ! The latitudinal or y-direction length of the domain.
WESTLON = -100.0                !   [k] default = 0.0
                                ! The western longitude of the domain or the equivalent starting value for the
                                ! x-axis.
LENLON = 200.0                  !   [k]
                                ! The longitudinal or x-direction length of the domain.
RAD_EARTH = 6.378E+06           !   [m] default = 6.378E+06
                                ! The radius of the Earth.
TOPO_CONFIG = "dumbbell"        !
                                ! This specifies how bathymetry is specified:
                                !     file - read bathymetric information from the file
                                !       specified by (TOPO_FILE).
                                !     flat - flat bottom set to MAXIMUM_DEPTH.
                                !     bowl - an analytically specified bowl-shaped basin
                                !       ranging between MAXIMUM_DEPTH and MINIMUM_DEPTH.
                                !     spoon - a similar shape to 'bowl', but with an vertical
                                !       wall at the southern face.
                                !     halfpipe - a zonally uniform channel with a half-sine
                                !       profile in the meridional direction.
                                !     bbuilder - build topography from list of functions.
                                !     benchmark - use the benchmark test case topography.
                                !     Neverworld - use the Neverworld test case topography.
                                !     DOME - use a slope and channel configuration for the
                                !       DOME sill-overflow test case.
                                !     ISOMIP - use a slope and channel configuration for the
                                !       ISOMIP test case.
                                !     DOME2D - use a shelf and slope configuration for the
                                !       DOME2D gravity current/overflow test case.
                                !     Kelvin - flat but with rotated land mask.
                                !     seamount - Gaussian bump for spontaneous motion test case.
                                !     dumbbell - Sloshing channel with reservoirs on both ends.
                                !     shelfwave - exponential slope for shelfwave test case.
                                !     Phillips - ACC-like idealized topography used in the Phillips config.
                                !     dense - Denmark Strait-like dense water formation and overflow.
                                !     USER - call a user modified routine.
DUMBBELL_LEN = 600.0            !   [k] default = 600.0
                                ! Lateral Length scale for dumbbell.
DUMBBELL_FRACTION = 0.8         !   [nondim] default = 0.5
                                ! Meridional fraction for narrow part of dumbbell.
DUMBBELL_ROTATION = False       !   [nondim] default = False
                                ! Logical for rotation of dumbbell domain.
MAXIMUM_DEPTH = 2000.0          !   [m]
                                ! The maximum depth of the ocean.
MINIMUM_DEPTH = 1.0             !   [m] default = 0.0
                                ! If MASKING_DEPTH is unspecified, then anything shallower than MINIMUM_DEPTH is
                                ! assumed to be land and all fluxes are masked out. If MASKING_DEPTH is
                                ! specified, then all depths shallower than MINIMUM_DEPTH but deeper than
                                ! MASKING_DEPTH are rounded to MINIMUM_DEPTH.

! === module MOM_open_boundary ===
! Controls where open boundaries are located, what kind of boundary condition to impose, and what data to apply,
! if any.
OBC_NUMBER_OF_SEGMENTS = 2      ! default = 0
                                ! The number of open boundary segments.
OBC_ZERO_VORTICITY = False      !   [Boolean] default = False
                                ! If true, sets relative vorticity to zero on open boundaries.
OBC_FREESLIP_VORTICITY = True   !   [Boolean] default = True
                                ! If true, sets the normal gradient of tangential velocity to zero in the
                                ! relative vorticity on open boundaries. This cannot be true if another
                                ! OBC_XXX_VORTICITY option is True.
OBC_COMPUTED_VORTICITY = False  !   [Boolean] default = False
                                ! If true, uses the external values of tangential velocity in the relative
                                ! vorticity on open boundaries. This cannot be true if another OBC_XXX_VORTICITY
                                ! option is True.
OBC_SPECIFIED_VORTICITY = False !   [Boolean] default = False
                                ! If true, uses the external values of tangential velocity in the relative
                                ! vorticity on open boundaries. This cannot be true if another OBC_XXX_VORTICITY
                                ! option is True.
OBC_ZERO_STRAIN = False         !   [Boolean] default = False
                                ! If true, sets the strain used in the stress tensor to zero on open boundaries.
OBC_FREESLIP_STRAIN = True      !   [Boolean] default = True
                                ! If true, sets the normal gradient of tangential velocity to zero in the strain
                                ! use in the stress tensor on open boundaries. This cannot be true if another
                                ! OBC_XXX_STRAIN option is True.
OBC_COMPUTED_STRAIN = False     !   [Boolean] default = False
                                ! If true, sets the normal gradient of tangential velocity to zero in the strain
                                ! use in the stress tensor on open boundaries. This cannot be true if another
                                ! OBC_XXX_STRAIN option is True.
OBC_SPECIFIED_STRAIN = False    !   [Boolean] default = False
                                ! If true, sets the normal gradient of tangential velocity to zero in the strain
                                ! use in the stress tensor on open boundaries. This cannot be true if another
                                ! OBC_XXX_STRAIN option is True.
OBC_ZERO_BIHARMONIC = True      !   [Boolean] default = False
                                ! If true, zeros the Laplacian of flow on open boundaries in the biharmonic
                                ! viscosity term.
MASK_OUTSIDE_OBCS = False       !   [Boolean] default = False
                                ! If true, set the areas outside open boundaries to be land.
RAMP_OBCS = False               !   [Boolean] default = False
                                ! If true, ramps from zero to the external values over time, witha ramping
                                ! timescale given by RAMP_TIMESCALE. Ramping SSH only so far
OBC_RAMP_TIMESCALE = 1.0        !   [days] default = 1.0
                                ! If RAMP_OBCS is true, this sets the ramping timescale.
OBC_SEGMENT_001 = "I=0,J=N:0,FLATHER,ORLANSKI,NUDGED,ORLANSKI_TAN,NUDGED_TAN,ORLANSKI_GRAD,NUDGED_GRAD" !
                                ! Documentation needs to be dynamic?????
OBC_SEGMENT_001_VELOCITY_NUDGING_TIMESCALES = 0.25, 200.0 !   [days] default = 0.0
                                ! Timescales in days for nudging along a segment, for inflow, then outflow.
                                ! Setting both to zero should behave like SIMPLE obcs for the baroclinic
                                ! velocities.
OBC_SEGMENT_002 = "I=N,J=0:N,FLATHER,ORLANSKI,NUDGED,ORLANSKI_TAN,NUDGED_TAN,ORLANSKI_GRAD,NUDGED_GRAD" !
                                ! Documentation needs to be dynamic?????
OBC_SEGMENT_002_VELOCITY_NUDGING_TIMESCALES = 0.25, 200.0 !   [days] default = 0.0
                                ! Timescales in days for nudging along a segment, for inflow, then outflow.
                                ! Setting both to zero should behave like SIMPLE obcs for the baroclinic
                                ! velocities.
BRUSHCUTTER_MODE = False        !   [Boolean] default = False
                                ! If true, read external OBC data on the supergrid.
REMAPPING_2018_ANSWERS = False  !   [Boolean] default = False
                                ! If true, use the order of arithmetic and expressions that recover the answers
                                ! from the end of 2018.  Otherwise, use updated and more robust forms of the
                                ! same expressions.
OBC_SEGMENT_001_DATA = "U=file:../z/west.nc(u),V=file:../z/west.nc(v),SSH=file:../z/west.nc(zeta),SALT=file:../z/west.nc(salt),DVDX=file:../z/west.nc(dvdx),TEMP=value:20.0" !
                                ! OBC segment docs
OBC_SEGMENT_002_DATA = "U=file:../z/east.nc(u),V=file:../z/east.nc(v),SSH=file:../z/east.nc(zeta),SALT=file:../z/east.nc(salt),DVDX=file:../z/east.nc(dvdx),TEMP=value:20.0" !
                                ! OBC segment docs
OBC_RADIATION_MAX = 1.0         !   [nondim] default = 1.0
                                ! The maximum magnitude of the baroclinic radiation velocity (or speed of
                                ! characteristics), in gridpoints per timestep.  This is only used if one of the
                                ! open boundary segments is using Orlanski.
OBC_RAD_VEL_WT = 0.3            !   [nondim] default = 0.3
                                ! The relative weighting for the baroclinic radiation velocities (or speed of
                                ! characteristics) at the new time level (1) or the running mean (0) for
                                ! velocities. Valid values range from 0 to 1. This is only used if one of the
                                ! open boundary segments is using Orlanski.
OBC_TRACER_RESERVOIR_LENGTH_SCALE_OUT = 300.0 !   [m] default = 0.0
                                ! An effective length scale for restoring the tracer concentration at the
                                ! boundaries to externally imposed values when the flow is exiting the domain.
OBC_TRACER_RESERVOIR_LENGTH_SCALE_IN = 300.0 !   [m] default = 0.0
                                ! An effective length scale for restoring the tracer concentration at the
                                ! boundaries to values from the interior when the flow is entering the domain.
MASKING_DEPTH = -9999.0         !   [m] default = -9999.0
                                ! The depth below which to mask points as land points, for which all fluxes are
                                ! zeroed out. MASKING_DEPTH is ignored if negative.
CHANNEL_CONFIG = "none"         ! default = "none"
                                ! A parameter that determines which set of channels are
                                ! restricted to specific  widths.  Options are:
                                !     none - All channels have the grid width.
                                !     global_1deg - Sets 16 specific channels appropriate
                                !       for a 1-degree model, as used in CM2G.
                                !     list - Read the channel locations and widths from a
                                !       text file, like MOM_channel_list in the MOM_SIS
                                !       test case.
                                !     file - Read open face widths everywhere from a
                                !       NetCDF file on the model grid.
ROTATION = "betaplane"          ! default = "2omegasinlat"
                                ! This specifies how the Coriolis parameter is specified:
                                !     2omegasinlat - Use twice the planetary rotation rate
                                !       times the sine of latitude.
                                !     betaplane - Use a beta-plane or f-plane.
                                !     USER - call a user modified routine.
F_0 = 1.0E-04                   !   [s-1] default = 0.0
                                ! The reference value of the Coriolis parameter with the betaplane option.
BETA = 0.0                      !   [m-1 s-1] default = 0.0
                                ! The northward gradient of the Coriolis parameter with the betaplane option.
GRID_ROTATION_ANGLE_BUGS = False !   [Boolean] default = False
                                ! If true, use an older algorithm to calculate the sine and cosines needed
                                ! rotate between grid-oriented directions and true north and east.  Differences
                                ! arise at the tripolar fold.

! === module MOM_verticalGrid ===
! Parameters providing information about the vertical grid.
G_EARTH = 9.8                   !   [m s-2] default = 9.8
                                ! The gravitational acceleration of the Earth.
RHO_0 = 1035.0                  !   [kg m-3] default = 1035.0
                                ! The mean ocean density used with BOUSSINESQ true to calculate accelerations
                                ! and the mass for conservation properties, or with BOUSSINSEQ false to convert
                                ! some parameters from vertical units of m to kg m-2.
BOUSSINESQ = True               !   [Boolean] default = True
                                ! If true, make the Boussinesq approximation.
ANGSTROM = 1.0E-10              !   [m] default = 1.0E-10
                                ! The minimum layer thickness, usually one-Angstrom.
H_TO_M = 1.0                    !   [m H-1] default = 1.0
                                ! A constant that translates the model's internal units of thickness into m.
NK = 2                          !   [nondim]
                                ! The number of model layers.

! === module MOM_boundary_update ===
USE_FILE_OBC = False            !   [Boolean] default = False
                                ! If true, use external files for the open boundary.
USE_TIDAL_BAY_OBC = False       !   [Boolean] default = False
                                ! If true, use the tidal_bay open boundary.
USE_KELVIN_WAVE_OBC = False     !   [Boolean] default = False
                                ! If true, use the Kelvin wave open boundary.
USE_SHELFWAVE_OBC = False       !   [Boolean] default = False
                                ! If true, use the shelfwave open boundary.
USE_DYED_CHANNEL_OBC = False    !   [Boolean] default = False
                                ! If true, use the dyed channel open boundary.

! === module MOM_tracer_registry ===

! === module segment_tracer_registry_init ===

! === module MOM_EOS ===
EQN_OF_STATE = "LINEAR"         ! default = "WRIGHT"
                                ! EQN_OF_STATE determines which ocean equation of state should be used.
                                ! Currently, the valid choices are "LINEAR", "UNESCO", "WRIGHT", "NEMO" and
                                ! "TEOS10". This is only used if USE_EOS is true.
RHO_T0_S0 = 1000.0              !   [kg m-3] default = 1000.0
                                ! When EQN_OF_STATE=LINEAR, this is the density at T=0, S=0.
DRHO_DT = 0.0                   !   [kg m-3 K-1] default = -0.2
                                ! When EQN_OF_STATE=LINEAR, this is the partial derivative of density with
                                ! temperature.
DRHO_DS = 1.0                   !   [kg m-3 PSU-1] default = 0.8
                                ! When EQN_OF_STATE=LINEAR, this is the partial derivative of density with