! This file was written by the model and records the non-default parameters used at run-time.

! === module MOM ===

! === module MOM_unit_scaling ===
! Parameters for doing unit scaling of variables.
USE_REGRIDDING = True           !   [Boolean] default = False
                                ! If True, use the ALE algorithm (regridding/remapping). If False, use the
                                ! layered isopycnal algorithm.
DT = 900.0                      !   [s]
                                ! The (baroclinic) dynamics time step.  The time-step that is actually used will
                                ! be an integer fraction of the forcing time-step (DT_FORCING in ocean-only mode
                                ! or the coupling timestep in coupled mode.)
C_P = 3925.0                    !   [J kg-1 K-1] default = 3991.86795711963
                                ! The heat capacity of sea water, approximated as a constant. This is only used
                                ! if ENABLE_THERMODYNAMICS is true. The default value is from the TEOS-10
                                ! definition of conservative temperature.
SAVE_INITIAL_CONDS = True       !   [Boolean] default = False
                                ! If true, write the initial conditions to a file given by IC_OUTPUT_FILE.

! === module MOM_domains ===
REENTRANT_X = False             !   [Boolean] default = True
                                ! If true, the domain is zonally reentrant.
NIGLOBAL = 44                   !
                                ! The total number of thickness grid points in the x-direction in the physical
                                ! domain. With STATIC_MEMORY_ this is set in MOM_memory.h at compile time.
NJGLOBAL = 44                   !
                                ! The total number of thickness grid points in the y-direction in the physical
                                ! domain. With STATIC_MEMORY_ this is set in MOM_memory.h at compile time.

! === module MOM_hor_index ===
! Sets the horizontal array index types.

! === module MOM_verticalGrid ===
! Parameters providing information about the vertical grid.
NK = 20                         !   [nondim]
                                ! The number of model layers.

! === module MOM_fixed_initialization ===
INPUTDIR = "INPUT/"             ! default = "."
                                ! The directory in which input files are found.

! === module MOM_grid_init ===
GRID_CONFIG = "mercator"        !
                                ! A character string that determines the method for defining the horizontal
                                ! grid.  Current options are:
                                !     mosaic - read the grid from a mosaic (supergrid)
                                !              file set by GRID_FILE.
                                !     cartesian - use a (flat) Cartesian grid.
                                !     spherical - use a simple spherical grid.
                                !     mercator - use a Mercator spherical grid.
SOUTHLAT = 35.0                 !   [degrees]
                                ! The southern latitude of the domain.
LENLAT = 7.0                    !   [degrees]
                                ! The latitudinal length of the domain.
WESTLON = 180.0                 !   [degrees] default = 0.0
                                ! The western longitude of the domain.
LENLON = 7.0                    !   [degrees]
                                ! The longitudinal length of the domain.
TOPO_CONFIG = "seamount"        !
                                ! This specifies how bathymetry is specified:
                                !     file - read bathymetric information from the file
                                !       specified by (TOPO_FILE).
                                !     flat - flat bottom set to MAXIMUM_DEPTH.
                                !     bowl - an analytically specified bowl-shaped basin
                                !       ranging between MAXIMUM_DEPTH and MINIMUM_DEPTH.
                                !     spoon - a similar shape to 'bowl', but with an vertical
                                !       wall at the southern face.
                                !     halfpipe - a zonally uniform channel with a half-sine
                                !       profile in the meridional direction.
                                !     benchmark - use the benchmark test case topography.
                                !     Neverland - use the Neverland test case topography.
                                !     DOME - use a slope and channel configuration for the
                                !       DOME sill-overflow test case.
                                !     ISOMIP - use a slope and channel configuration for the
                                !       ISOMIP test case.
                                !     DOME2D - use a shelf and slope configuration for the
                                !       DOME2D gravity current/overflow test case.
                                !     Kelvin - flat but with rotated land mask.
                                !     seamount - Gaussian bump for spontaneous motion test case.
                                !     dumbbell - Sloshing channel with reservoirs on both ends.
                                !     shelfwave - exponential slope for shelfwave test case.
                                !     Phillips - ACC-like idealized topography used in the Phillips config.
                                !     dense - Denmark Strait-like dense water formation and overflow.
                                !     USER - call a user modified routine.
SEAMOUNT_DELTA = 0.9            !   [non-dim] default = 0.5
                                ! Non-dimensional height of seamount.
SEAMOUNT_X_LENGTH_SCALE = 0.5   !   [Same as x,y] default = 20.0
                                ! Length scale of seamount in x-direction. Set to zero make topography uniform
                                ! in the x-direction.
SEAMOUNT_Y_LENGTH_SCALE = 0.5   !   [Same as x,y] default = 0.0
                                ! Length scale of seamount in y-direction. Set to zero make topography uniform
                                ! in the y-direction.
MAXIMUM_DEPTH = 4000.0          !   [m]
                                ! The maximum depth of the ocean.
MINIMUM_DEPTH = 1.0             !   [m] default = 0.0
                                ! If MASKING_DEPTH is unspecified, then anything shallower than MINIMUM_DEPTH is
                                ! assumed to be land and all fluxes are masked out. If MASKING_DEPTH is
                                ! specified, then all depths shallower than MINIMUM_DEPTH but deeper than
                                ! MASKING_DEPTH are rounded to MINIMUM_DEPTH.

! === module MOM_open_boundary ===
! Controls where open boundaries are located, what kind of boundary condition to impose, and what data to apply,
! if any.
OBC_NUMBER_OF_SEGMENTS = 36     ! default = 0
                                ! The number of open boundary segments.
OBC_FREESLIP_VORTICITY = False  !   [Boolean] default = True
                                ! If true, sets the normal gradient of tangential velocity to zero in the
                                ! relative vorticity on open boundaries. This cannot be true if another
                                ! OBC_XXX_VORTICITY option is True.
OBC_COMPUTED_VORTICITY = True   !   [Boolean] default = False
                                ! If true, uses the external values of tangential velocity in the relative
                                ! vorticity on open boundaries. This cannot be true if another OBC_XXX_VORTICITY
                                ! option is True.
OBC_FREESLIP_STRAIN = False     !   [Boolean] default = True
                                ! If true, sets the normal gradient of tangential velocity to zero in the strain
                                ! use in the stress tensor on open boundaries. This cannot be true if another
                                ! OBC_XXX_STRAIN option is True.
OBC_COMPUTED_STRAIN = True      !   [Boolean] default = False
                                ! If true, sets the normal gradient of tangential velocity to zero in the strain
                                ! use in the stress tensor on open boundaries. This cannot be true if another
                                ! OBC_XXX_STRAIN option is True.
OBC_ZERO_BIHARMONIC = True      !   [Boolean] default = False
                                ! If true, zeros the Laplacian of flow on open boundaries in the biharmonic
                                ! viscosity term.
MASK_OUTSIDE_OBCS = True        !   [Boolean] default = False
                                ! If true, set the areas outside open boundaries to be land.
OBC_SEGMENT_001 = "I=0,J=40:32,FLATHER, OBLIQUE, OBLIQUE_TAN" !
                                ! Documentation needs to be dynamic?????
OBC_SEGMENT_002 = "J=32,I=0:1,FLATHER, OBLIQUE, OBLIQUE_TAN" !
                                ! Documentation needs to be dynamic?????
OBC_SEGMENT_003 = "I=1,J=32:24,FLATHER, OBLIQUE, OBLIQUE_TAN" !
                                ! Documentation needs to be dynamic?????
OBC_SEGMENT_004 = "J=24,I=1:2,FLATHER, OBLIQUE, OBLIQUE_TAN" !
                                ! Documentation needs to be dynamic?????
OBC_SEGMENT_005 = "I=2,J=24:16,FLATHER, OBLIQUE, OBLIQUE_TAN" !
                                ! Documentation needs to be dynamic?????
OBC_SEGMENT_006 = "J=16,I=2:3,FLATHER, OBLIQUE, OBLIQUE_TAN" !
                                ! Documentation needs to be dynamic?????
OBC_SEGMENT_007 = "I=3,J=16:8,FLATHER, OBLIQUE, OBLIQUE_TAN" !
                                ! Documentation needs to be dynamic?????
OBC_SEGMENT_008 = "J=8,I=3:4,FLATHER, OBLIQUE, OBLIQUE_TAN" !
                                ! Documentation needs to be dynamic?????
OBC_SEGMENT_009 = "I=4,J=8:0,FLATHER, OBLIQUE, OBLIQUE_TAN" !
                                ! Documentation needs to be dynamic?????
OBC_SEGMENT_010 = "J=0,I=4:12,FLATHER, OBLIQUE, OBLIQUE_TAN" !
                                ! Documentation needs to be dynamic?????
OBC_SEGMENT_011 = "I=12,J=0:1,FLATHER, OBLIQUE, OBLIQUE_TAN" !
                                ! Documentation needs to be dynamic?????
OBC_SEGMENT_012 = "J=1,I=12:20,FLATHER, OBLIQUE, OBLIQUE_TAN" !
                                ! Documentation needs to be dynamic?????
OBC_SEGMENT_013 = "I=20,J=1:2,FLATHER, OBLIQUE, OBLIQUE_TAN" !
                                ! Documentation needs to be dynamic?????
OBC_SEGMENT_014 = "J=2,I=20:28,FLATHER, OBLIQUE, OBLIQUE_TAN" !
                                ! Documentation needs to be dynamic?????
OBC_SEGMENT_015 = "I=28,J=2:3,FLATHER, OBLIQUE, OBLIQUE_TAN" !
                                ! Documentation needs to be dynamic?????
OBC_SEGMENT_016 = "J=3,I=28:36,FLATHER, OBLIQUE, OBLIQUE_TAN" !
                                ! Documentation needs to be dynamic?????
OBC_SEGMENT_017 = "I=36,J=3:4,FLATHER, OBLIQUE, OBLIQUE_TAN" !
                                ! Documentation needs to be dynamic?????
OBC_SEGMENT_018 = "J=4,I=36:44,FLATHER, OBLIQUE, OBLIQUE_TAN" !
                                ! Documentation needs to be dynamic?????
OBC_SEGMENT_019 = "I=44,J=4:12,FLATHER, OBLIQUE, OBLIQUE_TAN" !
                                ! Documentation needs to be dynamic?????
OBC_SEGMENT_020 = "J=12,I=44:43,FLATHER, OBLIQUE, OBLIQUE_TAN" !
                                ! Documentation needs to be dynamic?????
OBC_SEGMENT_021 = "I=43,J=12:20,FLATHER, OBLIQUE, OBLIQUE_TAN" !
                                ! Documentation needs to be dynamic?????
OBC_SEGMENT_022 = "J=20,I=43:42,FLATHER, OBLIQUE, OBLIQUE_TAN" !
                                ! Documentation needs to be dynamic?????
OBC_SEGMENT_023 = "I=42,J=20:28,FLATHER, OBLIQUE, OBLIQUE_TAN" !
                                ! Documentation needs to be dynamic?????
OBC_SEGMENT_024 = "J=28,I=42:41,FLATHER, OBLIQUE, OBLIQUE_TAN" !
                                ! Documentation needs to be dynamic?????
OBC_SEGMENT_025 = "I=41,J=28:36,FLATHER, OBLIQUE, OBLIQUE_TAN" !
                                ! Documentation needs to be dynamic?????
OBC_SEGMENT_026 = "J=36,I=41:40,FLATHER, OBLIQUE, OBLIQUE_TAN" !
                                ! Documentation needs to be dynamic?????
OBC_SEGMENT_027 = "I=40,J=36:44,FLATHER, OBLIQUE, OBLIQUE_TAN" !
                                ! Documentation needs to be dynamic?????
OBC_SEGMENT_028 = "J=44,I=40:32,FLATHER, OBLIQUE, OBLIQUE_TAN" !
                                ! Documentation needs to be dynamic?????
OBC_SEGMENT_029 = "I=32,J=44:43,FLATHER, OBLIQUE, OBLIQUE_TAN" !
                                ! Documentation needs to be dynamic?????
OBC_SEGMENT_030 = "J=43,I=32:24,FLATHER, OBLIQUE, OBLIQUE_TAN" !
                                ! Documentation needs to be dynamic?????
OBC_SEGMENT_031 = "I=24,J=43:42,FLATHER, OBLIQUE, OBLIQUE_TAN" !
                                ! Documentation needs to be dynamic?????
OBC_SEGMENT_032 = "J=42,I=24:16,FLATHER, OBLIQUE, OBLIQUE_TAN" !
                                ! Documentation needs to be dynamic?????
OBC_SEGMENT_033 = "I=16,J=42:41,FLATHER, OBLIQUE, OBLIQUE_TAN" !
                                ! Documentation needs to be dynamic?????
OBC_SEGMENT_034 = "J=41,I=16:8,FLATHER, OBLIQUE, OBLIQUE_TAN" !
                                ! Documentation needs to be dynamic?????
OBC_SEGMENT_035 = "I=8,J=41:40,FLATHER, OBLIQUE, OBLIQUE_TAN" !
                                ! Documentation needs to be dynamic?????
OBC_SEGMENT_036 = "J=40,I=8:0,FLATHER, OBLIQUE, OBLIQUE_TAN" !
                                ! Documentation needs to be dynamic?????
OBC_SEGMENT_001_DATA = "U=value:0.0,V=value:0.0,SSH=value:0.0" !
                                ! OBC segment docs
OBC_SEGMENT_002_DATA = "U=value:0.0,V=value:0.0,SSH=value:0.0" !
                                ! OBC segment docs
OBC_SEGMENT_003_DATA = "U=value:0.0,V=value:0.0,SSH=value:0.0" !
                                ! OBC segment docs
OBC_SEGMENT_004_DATA = "U=value:0.0,V=value:0.0,SSH=value:0.0" !
                                ! OBC segment docs
OBC_SEGMENT_005_DATA = "U=value:0.0,V=value:0.0,SSH=value:0.0" !
                                ! OBC segment docs
OBC_SEGMENT_006_DATA = "U=value:0.0,V=value:0.0,SSH=value:0.0" !
                                ! OBC segment docs
OBC_SEGMENT_007_DATA = "U=value:0.0,V=value:0.0,SSH=value:0.0" !
                                ! OBC segment docs
OBC_SEGMENT_008_DATA = "U=value:0.0,V=value:0.0,SSH=value:0.0" !
                                ! OBC segment docs
OBC_SEGMENT_009_DATA = "U=value:0.0,V=value:0.0,SSH=value:0.0" !
                                ! OBC segment docs
OBC_SEGMENT_010_DATA = "U=value:0.0,V=value:0.0,SSH=value:0.0" !
                                ! OBC segment docs
OBC_SEGMENT_011_DATA = "U=value:0.0,V=value:0.0,SSH=value:0.0" !
                                ! OBC segment docs
OBC_SEGMENT_012_DATA = "U=value:0.0,V=value:0.0,SSH=value:0.0" !
                                ! OBC segment docs
OBC_SEGMENT_013_DATA = "U=value:0.0,V=value:0.0,SSH=value:0.0" !
                                ! OBC segment docs
OBC_SEGMENT_014_DATA = "U=value:0.0,V=value:0.0,SSH=value:0.0" !
                                ! OBC segment docs
OBC_SEGMENT_015_DATA = "U=value:0.0,V=value:0.0,SSH=value:0.0" !
                                ! OBC segment docs
OBC_SEGMENT_016_DATA = "U=value:0.0,V=value:0.0,SSH=value:0.0" !
                                ! OBC segment docs
OBC_SEGMENT_017_DATA = "U=value:0.0,V=value:0.0,SSH=value:0.0" !
                                ! OBC segment docs
OBC_SEGMENT_018_DATA = "U=value:0.0,V=value:0.0,SSH=value:0.0" !
                                ! OBC segment docs
OBC_SEGMENT_019_DATA = "U=value:0.0,V=value:0.0,SSH=value:0.0" !
                                ! OBC segment docs
OBC_SEGMENT_020_DATA = "U=value:0.0,V=value:0.0,SSH=value:0.0" !
                                ! OBC segment docs
OBC_SEGMENT_021_DATA = "U=value:0.0,V=value:0.0,SSH=value:0.0" !
                                ! OBC segment docs
OBC_SEGMENT_022_DATA = "U=value:0.0,V=value:0.0,SSH=value:0.0" !
                                ! OBC segment docs
OBC_SEGMENT_023_DATA = "U=value:0.0,V=value:0.0,SSH=value:0.0" !
                                ! OBC segment docs
OBC_SEGMENT_024_DATA = "U=value:0.0,V=value:0.0,SSH=value:0.0" !
                                ! OBC segment docs
OBC_SEGMENT_025_DATA = "U=value:0.0,V=value:0.0,SSH=value:0.0" !
                                ! OBC segment docs
OBC_SEGMENT_026_DATA = "U=value:0.0,V=value:0.0,SSH=value:0.0" !
                                ! OBC segment docs
OBC_SEGMENT_027_DATA = "U=value:0.0,V=value:0.0,SSH=value:0.0" !
                                ! OBC segment docs
OBC_SEGMENT_028_DATA = "U=value:0.0,V=value:0.0,SSH=value:0.0" !
                                ! OBC segment docs
OBC_SEGMENT_029_DATA = "U=value:0.0,V=value:0.0,SSH=value:0.0" !
                                ! OBC segment docs
OBC_SEGMENT_030_DATA = "U=value:0.0,V=value:0.0,SSH=value:0.0" !
                                ! OBC segment docs
OBC_SEGMENT_031_DATA = "U=value:0.0,V=value:0.0,SSH=value:0.0" !
                                ! OBC segment docs
OBC_SEGMENT_032_DATA = "U=value:0.0,V=value:0.0,SSH=value:0.0" !
                                ! OBC segment docs
OBC_SEGMENT_033_DATA = "U=value:0.0,V=value:0.0,SSH=value:0.0" !
                                ! OBC segment docs
OBC_SEGMENT_034_DATA = "U=value:0.0,V=value:0.0,SSH=value:0.0" !
                                ! OBC segment docs
OBC_SEGMENT_035_DATA = "U=value:0.0,V=value:0.0,SSH=value:0.0" !
                                ! OBC segment docs
OBC_SEGMENT_036_DATA = "U=value:0.0,V=value:0.0,SSH=value:0.0" !
                                ! OBC segment docs
OBC_RAD_VEL_WT = 1.0            !   [nondim] default = 0.3
                                ! The relative weighting for the baroclinic radiation velocities (or speed of
                                ! characteristics) at the new time level (1) or the running mean (0) for
                                ! velocities. Valid values range from 0 to 1. This is only used if one of the
                                ! open boundary segments is using Orlanski.
OBC_TRACER_RESERVOIR_LENGTH_SCALE_OUT = 1000.0 !   [m] default = 0.0
                                ! An effective length scale for restoring the tracer concentration at the
                                ! boundaries to externally imposed values when the flow is exiting the domain.
OBC_TRACER_RESERVOIR_LENGTH_SCALE_IN = 1000.0 !   [m] default = 0.0
                                ! An effective length scale for restoring the tracer concentration at the
                                ! boundaries to values from the interior when the flow is entering the domain.
ROTATION = "betaplane"          ! default = "2omegasinlat"
                                ! This specifies how the Coriolis parameter is specified:
                                !     2omegasinlat - Use twice the planetary rotation rate
                                !       times the sine of latitude.
                                !     betaplane - Use a beta-plane or f-plane.
                                !     USER - call a user modified routine.
F_0 = 1.0E-04                   !   [s-1] default = 0.0
                                ! The reference value of the Coriolis parameter with the betaplane option.

! === module MOM_boundary_update ===

! === module MOM_tracer_registry ===

! === module segment_tracer_registry_init ===

! === module MOM_EOS ===
EQN_OF_STATE = "LINEAR"         ! default = "WRIGHT"
                                ! EQN_OF_STATE determines which ocean equation of state should be used.
                                ! Currently, the valid choices are "LINEAR", "UNESCO", "WRIGHT", "NEMO" and
                                ! "TEOS10". This is only used if USE_EOS is true.
DRHO_DT = 0.0                   !   [kg m-3 K-1] default = -0.2
                                ! When EQN_OF_STATE=LINEAR, this is the partial derivative of density with
                                ! temperature.
DRHO_DS = 1.0                   !   [kg m-3 PSU-1] default = 0.8
                                ! When EQN_OF_STATE=LINEAR, this is the partial derivative of density with
                                ! salinity.

! === module MOM_restart ===

! === module MOM_tracer_flow_control ===
USE_DYED_OBC_TRACER = True      !   [Boolean] default = False
                                ! If true, use the dyed_obc_tracer tracer package.

! === module dyed_obc_tracer ===
NUM_DYE_TRACERS = 3             ! default = 0
                                ! The number of dye tracers in this run. Each tracer should have a separate
                                ! boundary segment.

! === module MOM_coord_initialization ===
COORD_CONFIG = "ts_range"       !
                                ! This specifies how layers are to be defined:
                                !     ALE or none - used to avoid defining layers in ALE mode
                                !     file - read coordinate information from the file
                                !       specified by (COORD_FILE).
                                !     BFB - Custom coords for buoyancy-forced basin case
                                !       based on SST_S, T_BOT and DRHO_DT.
                                !     linear - linear based on interfaces not layers
                                !     layer_ref - linear based on layer densities
                                !     ts_ref - use reference temperature and salinity
                                !     ts_range - use range of temperature and salinity
                                !       (T_REF and S_REF) to determine surface density
                                !       and GINT calculate internal densities.
                                !     gprime - use reference density (RHO_0) for surface
                                !       density and GINT calculate internal densities.
                                !     ts_profile - use temperature and salinity profiles
                                !       (read from COORD_FILE) to set layer densities.
                                !     USER - call a user modified routine.
T_REF = 0.0                     !   [degC] default = 10.0
                                ! The default initial temperatures.
S_REF = 34.0                    !   [PSU] default = 35.0
                                ! The default initial salinities.
TS_RANGE_S_LIGHT = 34.05        !   [PSU] default = 34.0
                                ! The initial lightest salinities when COORD_CONFIG is set to ts_range.
TS_RANGE_S_DENSE = 35.95        !   [PSU] default = 34.0
                                ! The initial densest salinities when COORD_CONFIG is set to ts_range.
REGRIDDING_COORDINATE_MODE = "SIGMA" ! default = "LAYER"
                                ! Coordinate mode for vertical regridding. Choose among the following
                                ! possibilities:  LAYER - Isopycnal or stacked shallow water layers
                                !  ZSTAR, Z* - stretched geopotential z*
                                !  SIGMA_SHELF_ZSTAR - stretched geopotential z* ignoring shelf
                                !  SIGMA - terrain following coordinates
                                !  RHO   - continuous isopycnal
                                !  HYCOM1 - HyCOM-like hybrid coordinate
                                !  SLIGHT - stretched coordinates above continuous isopycnal
                                !  ADAPTIVE - optimize for smooth neutral density surfaces
!ALE_RESOLUTION = 20*0.05       !   [Non-dimensional]
                                ! The distribution of vertical resolution for the target
                                ! grid used for Eulerian-like coordinates. For example,
                                ! in z-coordinate mode, the parameter is a list of level
                                ! thicknesses (in m). In sigma-coordinate mode, the list
                                ! is of non-dimensional fractions of the water column.
MIN_THICKNESS = 0.1             !   [m] default = 0.001
                                ! When regridding, this is the minimum layer thickness allowed.
REMAPPING_SCHEME = "PPM_IH4"    ! default = "PLM"
                                ! This sets the reconstruction scheme used for vertical remapping for all
                                ! variables. It can be one of the following schemes: PCM         (1st-order
                                ! accurate)
                                ! PLM         (2nd-order accurate)
                                ! PPM_H4      (3rd-order accurate)
                                ! PPM_IH4     (3rd-order accurate)
                                ! PQM_IH4IH3  (4th-order accurate)
                                ! PQM_IH6IH5  (5th-order accurate)

! === module MOM_grid ===
! Parameters providing information about the lateral grid.

! === module MOM_state_initialization ===
THICKNESS_CONFIG = "seamount"   !
                                ! A string that determines how the initial layer thicknesses are specified for a
                                ! new run:
                                !     file - read interface heights from the file specified
                                !     thickness_file - read thicknesses from the file specified
                                !       by (THICKNESS_FILE).
                                !     coord - determined by ALE coordinate.
                                !     uniform - uniform thickness layers evenly distributed
                                !       between the surface and MAXIMUM_DEPTH.
                                !     list - read a list of positive interface depths.
                                !     DOME - use a slope and channel configuration for the
                                !       DOME sill-overflow test case.
                                !     ISOMIP - use a configuration for the
                                !       ISOMIP test case.
                                !     benchmark - use the benchmark test case thicknesses.
                                !     Neverland - use the Neverland test case thicknesses.
                                !     search - search a density profile for the interface
                                !       densities. This is not yet implemented.
                                !     circle_obcs - the circle_obcs test case is used.
                                !     DOME2D - 2D version of DOME initialization.
                                !     adjustment2d - 2D lock exchange thickness ICs.
                                !     sloshing - sloshing gravity thickness ICs.
                                !     seamount - no motion test with seamount ICs.
                                !     dumbbell - sloshing channel ICs.
                                !     soliton - Equatorial Rossby soliton.
                                !     rossby_front - a mixed layer front in thermal wind balance.
                                !     USER - call a user modified routine.
TS_CONFIG = "seamount"          !
                                ! A string that determines how the initial tempertures and salinities are
                                ! specified for a new run:
                                !     file - read velocities from the file specified
                                !       by (TS_FILE).
                                !     fit - find the temperatures that are consistent with
                                !       the layer densities and salinity S_REF.
                                !     TS_profile - use temperature and salinity profiles
                                !       (read from TS_FILE) to set layer densities.
                                !     benchmark - use the benchmark test case T & S.
                                !     linear - linear in logical layer space.
                                !     DOME2D - 2D DOME initialization.
                                !     ISOMIP - ISOMIP initialization.
                                !     adjustment2d - 2d lock exchange T/S ICs.
                                !     sloshing - sloshing mode T/S ICs.
                                !     seamount - no motion test with seamount ICs.
                                !     dumbbell - sloshing channel ICs.
                                !     rossby_front - a mixed layer front in thermal wind balance.
                                !     SCM_CVMix_tests - used in the SCM CVMix tests.
                                !     USER - call a user modified routine.
OBC_USER_CONFIG = "dyed_obcs"   ! default = "none"
                                ! A string that sets how the user code is invoked to set open boundary data:
                                !    DOME - specified inflow on northern boundary
                                !    dyed_channel - supercritical with dye on the inflow boundary
                                !    dyed_obcs - circle_obcs with dyes on the open boundaries
                                !    Kelvin - barotropic Kelvin wave forcing on the western boundary
                                !    shelfwave - Flather with shelf wave forcing on western boundary
                                !    supercritical - now only needed here for the allocations
                                !    tidal_bay - Flather with tidal forcing on eastern boundary
                                !    USER - user specified

! === module MOM_diag_mediator ===
