! Blank file in which we can put "overrides" for parameters
#override WIND_CONFIG = "const"
CONST_WIND_TAUX = -0.1
CONST_WIND_TAUY = 0.0
#override OBC_SEGMENT_002_DATA = "U=value:0.0,V=file:ends.nc(v),SSH=file:ends.nc(zeta)"
#override OBC_SEGMENT_003_DATA = "U=value:0.0,V=file:ends.nc(v),SSH=file:ends.nc(zeta)"
#override OBC_SEGMENT_002 = "J=N,I=N:0,FLATHER,OBLIQUE" !
#override OBC_SEGMENT_003 = "J=0,I=0:N,FLATHER,OBLIQUE" !
