! Blank file in which we can put "overrides" for parameters
#override WIND_CONFIG = "const"
CONST_WIND_TAUX = -0.1
CONST_WIND_TAUY = 0.0
REENTRANT_Y = True
#override OBC_NUMBER_OF_SEGMENTS = 3      ! default = 0
#override OBC_SEGMENT_001 = "I=N,J=-10:-2,FLATHER" !
#override OBC_SEGMENT_002 = "I=N,J=0:N-2,FLATHER" !
#override OBC_SEGMENT_003 = "I=N,J=N:N+10,FLATHER" !
