! This file was written by the model and records all non-layout or debugging parameters used at run-time.

! === module MOM ===
SPLIT = True                    !   [Boolean] default = True
                                ! Use the split time stepping if true.
CALC_RHO_FOR_SEA_LEVEL = False  !   [Boolean] default = False
                                ! If true, the in-situ density is used to calculate the effective sea level that
                                ! is returned to the coupler. If false, the Boussinesq parameter RHO_0 is used.
ENABLE_THERMODYNAMICS = True    !   [Boolean] default = True
                                ! If true, Temperature and salinity are used as state variables.
USE_EOS = True                  !   [Boolean] default = True
                                ! If true,  density is calculated from temperature and salinity with an equation
                                ! of state.  If USE_EOS is true, ENABLE_THERMODYNAMICS must be true as well.
DIABATIC_FIRST = False          !   [Boolean] default = False
                                ! If true, apply diabatic and thermodynamic processes, including buoyancy
                                ! forcing and mass gain or loss, before stepping the dynamics forward.
USE_CONTEMP_ABSSAL = False      !   [Boolean] default = False
                                ! If true, the prognostics T&S are the conservative temperature and absolute
                                ! salinity. Care should be taken to convert them to potential temperature and
                                ! practical salinity before exchanging them with the coupler and/or reporting
                                ! T&S diagnostics.
ADIABATIC = False               !   [Boolean] default = False
                                ! There are no diapycnal mass fluxes if ADIABATIC is true. This assumes that KD
                                ! = KDML = 0.0 and that there is no buoyancy forcing, but makes the model faster
                                ! by eliminating subroutine calls.
DO_DYNAMICS = True              !   [Boolean] default = True
                                ! If False, skips the dynamics calls that update u & v, as well as the gravity
                                ! wave adjustment to h. This may be a fragile feature, but can be useful during
                                ! development
OFFLINE_TRACER_MODE = False     !   [Boolean] default = False
                                ! If true, barotropic and baroclinic dynamics, thermodynamics are all bypassed
                                ! with all the fields necessary to integrate the tracer advection and diffusion
                                ! equation are read in from files stored from a previous integration of the
                                ! prognostic model. NOTE: This option only used in the ocean_solo_driver.
USE_REGRIDDING = False          !   [Boolean] default = False
                                ! If True, use the ALE algorithm (regridding/remapping). If False, use the
                                ! layered isopycnal algorithm.
BULKMIXEDLAYER = False          !   [Boolean] default = True
                                ! If true, use a Kraus-Turner-like bulk mixed layer with transitional buffer
                                ! layers.  Layers 1 through NKML+NKBL have variable densities. There must be at
                                ! least NKML+NKBL+1 layers if BULKMIXEDLAYER is true. BULKMIXEDLAYER can not be
                                ! used with USE_REGRIDDING. The default is influenced by ENABLE_THERMODYNAMICS.
THICKNESSDIFFUSE = False        !   [Boolean] default = False
                                ! If true, interface heights are diffused with a coefficient of KHTH.
THICKNESSDIFFUSE_FIRST = False  !   [Boolean] default = False
                                ! If true, do thickness diffusion before dynamics. This is only used if
                                ! THICKNESSDIFFUSE is true.
USE_POROUS_BARRIER = True       !   [Boolean] default = True
                                ! If true, use porous barrier to constrain the widths and face areas at the
                                ! edges of the grid cells.
BATHYMETRY_AT_VEL = False       !   [Boolean] default = False
                                ! If true, there are separate values for the basin depths at velocity points.
                                ! Otherwise the effects of topography are entirely determined from thickness
                                ! points.
DT = 900.0                      !   [s]
                                ! The (baroclinic) dynamics time step.  The time-step that is actually used will
                                ! be an integer fraction of the forcing time-step (DT_FORCING in ocean-only mode
                                ! or the coupling timestep in coupled mode.)
DT_THERM = 900.0                !   [s] default = 900.0
                                ! The thermodynamic and tracer advection time step. Ideally DT_THERM should be
                                ! an integer multiple of DT and less than the forcing or coupling time-step,
                                ! unless THERMO_SPANS_COUPLING is true, in which case DT_THERM can be an integer
                                ! multiple of the coupling timestep.  By default DT_THERM is set to DT.
THERMO_SPANS_COUPLING = False   !   [Boolean] default = False
                                ! If true, the MOM will take thermodynamic and tracer timesteps that can be
                                ! longer than the coupling timestep. The actual thermodynamic timestep that is
                                ! used in this case is the largest integer multiple of the coupling timestep
                                ! that is less than or equal to DT_THERM.
HMIX_SFC_PROP = 1.0             !   [m] default = 1.0
                                ! If BULKMIXEDLAYER is false, HMIX_SFC_PROP is the depth over which to average
                                ! to find surface properties like SST and SSS or density (but not surface
                                ! velocities).
HMIX_UV_SFC_PROP = 0.0          !   [m] default = 0.0
                                ! If BULKMIXEDLAYER is false, HMIX_UV_SFC_PROP is the depth over which to
                                ! average to find surface flow properties, SSU, SSV. A non-positive value
                                ! indicates no averaging.
HFREEZE = -1.0                  !   [m] default = -1.0
                                ! If HFREEZE > 0, melt potential will be computed. The actual depth over which
                                ! melt potential is computed will be min(HFREEZE, OBLD), where OBLD is the
                                ! boundary layer depth. If HFREEZE <= 0 (default), melt potential will not be
                                ! computed.
INTERPOLATE_P_SURF = False      !   [Boolean] default = False
                                ! If true, linearly interpolate the surface pressure over the coupling time
                                ! step, using the specified value at the end of the step.
DTBT_RESET_PERIOD = 900.0       !   [s] default = 900.0
                                ! The period between recalculations of DTBT (if DTBT <= 0). If DTBT_RESET_PERIOD
                                ! is negative, DTBT is set based only on information available at
                                ! initialization.  If 0, DTBT will be set every dynamics time step. The default
                                ! is set by DT_THERM.  This is only used if SPLIT is true.
FRAZIL = False                  !   [Boolean] default = False
                                ! If true, water freezes if it gets too cold, and the accumulated heat deficit
                                ! is returned in the surface state.  FRAZIL is only used if
                                ! ENABLE_THERMODYNAMICS is true.
DO_GEOTHERMAL = False           !   [Boolean] default = False
                                ! If true, apply geothermal heating.
BOUND_SALINITY = False          !   [Boolean] default = False
                                ! If true, limit salinity to being positive. (The sea-ice model may ask for more
                                ! salt than is available and drive the salinity negative otherwise.)
SALINITY_UNDERFLOW = 0.0        !   [PPT] default = 0.0
                                ! A tiny value of salinity below which the it is set to 0.  For reference, one
                                ! molecule of salt per square meter of ocean is of order 1e-29 ppt.
TEMPERATURE_UNDERFLOW = 0.0     !   [degC] default = 0.0
                                ! A tiny magnitude of temperatures below which they are set to 0.
C_P = 3925.0                    !   [J kg-1 K-1] default = 3991.86795711963
                                ! The heat capacity of sea water, approximated as a constant. This is only used
                                ! if ENABLE_THERMODYNAMICS is true. The default value is from the TEOS-10
                                ! definition of conservative temperature.
USE_PSURF_IN_EOS = True         !   [Boolean] default = True
                                ! If true, always include the surface pressure contributions in equation of
                                ! state calculations.
P_REF = 2.0E+07                 !   [Pa] default = 2.0E+07
                                ! The pressure that is used for calculating the coordinate density.  (1 Pa = 1e4
                                ! dbar, so 2e7 is commonly used.) This is only used if USE_EOS and
                                ! ENABLE_THERMODYNAMICS are true.
FIRST_DIRECTION = 0             ! default = 0
                                ! An integer that indicates which direction goes first in parts of the code that
                                ! use directionally split updates, with even numbers (or 0) used for x- first
                                ! and odd numbers used for y-first.
ALTERNATE_FIRST_DIRECTION = False !   [Boolean] default = False
                                ! If true, after every dynamic timestep alternate whether the x- or y- direction
                                ! updates occur first in directionally split parts of the calculation. If this
                                ! is true, FIRST_DIRECTION applies at the start of a new run or if the next
                                ! first direction can not be found in the restart file.
CHECK_BAD_SURFACE_VALS = False  !   [Boolean] default = False
                                ! If true, check the surface state for ridiculous values.
DEFAULT_ANSWER_DATE = 99991231  ! default = 99991231
                                ! This sets the default value for the various _ANSWER_DATE parameters.
DEFAULT_2018_ANSWERS = False    !   [Boolean] default = False
                                ! This sets the default value for the various _2018_ANSWERS parameters.
SURFACE_2018_ANSWERS = False    !   [Boolean] default = False
                                ! If true, use expressions for the surface properties that recover the answers
                                ! from the end of 2018. Otherwise, use more appropriate expressions that differ
                                ! at roundoff for non-Boussinesq cases.
SURFACE_ANSWER_DATE = 99991231  ! default = 99991231
                                ! The vintage of the expressions for the surface properties.  Values below
                                ! 20190101 recover the answers from the end of 2018, while higher values use
                                ! updated and more robust forms of the same expressions.  If both
                                ! SURFACE_2018_ANSWERS and SURFACE_ANSWER_DATE are specified, the latter takes
                                ! precedence.
USE_DIABATIC_TIME_BUG = False   !   [Boolean] default = False
                                ! If true, uses the wrong calendar time for diabatic processes, as was done in
                                ! MOM6 versions prior to February 2018. This is not recommended.
SAVE_INITIAL_CONDS = True       !   [Boolean] default = False
                                ! If true, write the initial conditions to a file given by IC_OUTPUT_FILE.
IC_OUTPUT_FILE = "MOM_IC"       ! default = "MOM_IC"
                                ! The file into which to write the initial conditions.
WRITE_GEOM = 1                  ! default = 1
                                ! If =0, never write the geometry and vertical grid files. If =1, write the
                                ! geometry and vertical grid files only for a new simulation. If =2, always
                                ! write the geometry and vertical grid files. Other values are invalid.
USE_DBCLIENT = False            !   [Boolean] default = False
                                ! If true, initialize a client to a remote database that can be used for online
                                ! analysis and machine-learning inference.
ICE_SHELF = False               !   [Boolean] default = False
                                ! If true, enables the ice shelf model.
USE_PARTICLES = False           !   [Boolean] default = False
                                ! If true, use the particles package.
ENSEMBLE_OCEAN = False          !   [Boolean] default = False
                                ! If False, The model is being run in serial mode as a single realization. If
                                ! True, The current model realization is part of a larger ensemble and at the
                                ! end of step MOM, we will perform a gather of the ensemble members for
                                ! statistical evaluation and/or data assimilation.
HOMOGENIZE_FORCINGS = False     !   [Boolean] default = False
                                ! If True, homogenize the forces and fluxes.

! === module MOM_domains ===
REENTRANT_X = False             !   [Boolean] default = True
                                ! If true, the domain is zonally reentrant.
REENTRANT_Y = False             !   [Boolean] default = False
                                ! If true, the domain is meridionally reentrant.
TRIPOLAR_N = False              !   [Boolean] default = False
                                ! Use tripolar connectivity at the northern edge of the domain.  With
                                ! TRIPOLAR_N, NIGLOBAL must be even.
NIGLOBAL = 44                   !
                                ! The total number of thickness grid points in the x-direction in the physical
                                ! domain. With STATIC_MEMORY_ this is set in MOM_memory.h at compile time.
NJGLOBAL = 44                   !
                                ! The total number of thickness grid points in the y-direction in the physical
                                ! domain. With STATIC_MEMORY_ this is set in MOM_memory.h at compile time.
NIHALO = 3                      ! default = 4
                                ! The number of halo points on each side in the x-direction.  How this is set
                                ! varies with the calling component and static or dynamic memory configuration.
NJHALO = 3                      ! default = 4
                                ! The number of halo points on each side in the y-direction.  How this is set
                                ! varies with the calling component and static or dynamic memory configuration.

! === module MOM_hor_index ===
! Sets the horizontal array index types.

! === module MOM_grid ===
! Parameters providing information about the lateral grid.
REFERENCE_HEIGHT = 0.0          !   [m] default = 0.0
                                ! A reference value for geometric height fields, such as bathyT.

! === module MOM_fixed_initialization ===
INPUTDIR = "INPUT/"             ! default = "."
                                ! The directory in which input files are found.

! === module MOM_grid_init ===
GRID_CONFIG = "mercator"        !
                                ! A character string that determines the method for defining the horizontal
                                ! grid.  Current options are:
                                !     mosaic - read the grid from a mosaic (supergrid)
                                !              file set by GRID_FILE.
                                !     cartesian - use a (flat) Cartesian grid.
                                !     spherical - use a simple spherical grid.
                                !     mercator - use a Mercator spherical grid.
SOUTHLAT = 35.0                 !   [degrees]
                                ! The southern latitude of the domain.
LENLAT = 7.0                    !   [degrees]
                                ! The latitudinal length of the domain.
WESTLON = 180.0                 !   [degrees] default = 0.0
                                ! The western longitude of the domain.
LENLON = 7.0                    !   [degrees]
                                ! The longitudinal length of the domain.
RAD_EARTH = 6.378E+06           !   [m] default = 6.378E+06
                                ! The radius of the Earth.
ISOTROPIC = False               !   [Boolean] default = False
                                ! If true, an isotropic grid on a sphere (also known as a Mercator grid) is
                                ! used. With an isotropic grid, the meridional extent of the domain (LENLAT),
                                ! the zonal extent (LENLON), and the number of grid points in each direction are
                                ! _not_ independent. In MOM the meridional extent is determined to fit the zonal
                                ! extent and the number of grid points, while grid is perfectly isotropic.
EQUATOR_REFERENCE = True        !   [Boolean] default = True
                                ! If true, the grid is defined to have the equator at the nearest q- or h- grid
                                ! point to (-LOWLAT*NJGLOBAL/LENLAT).
LAT_ENHANCE_FACTOR = 1.0        !   [nondim] default = 1.0
                                ! The amount by which the meridional resolution is enhanced within
                                ! LAT_EQ_ENHANCE of the equator.
LAT_EQ_ENHANCE = 0.0            !   [degrees] default = 0.0
                                ! The latitude range to the north and south of the equator over which the
                                ! resolution is enhanced.
TOPO_CONFIG = "seamount"        !
                                ! This specifies how bathymetry is specified:
                                !     file - read bathymetric information from the file
                                !       specified by (TOPO_FILE).
                                !     flat - flat bottom set to MAXIMUM_DEPTH.
                                !     bowl - an analytically specified bowl-shaped basin
                                !       ranging between MAXIMUM_DEPTH and MINIMUM_DEPTH.
                                !     spoon - a similar shape to 'bowl', but with an vertical
                                !       wall at the southern face.
                                !     halfpipe - a zonally uniform channel with a half-sine
                                !       profile in the meridional direction.
                                !     bbuilder - build topography from list of functions.
                                !     benchmark - use the benchmark test case topography.
                                !     Neverworld - use the Neverworld test case topography.
                                !     DOME - use a slope and channel configuration for the
                                !       DOME sill-overflow test case.
                                !     ISOMIP - use a slope and channel configuration for the
                                !       ISOMIP test case.
                                !     DOME2D - use a shelf and slope configuration for the
                                !       DOME2D gravity current/overflow test case.
                                !     Kelvin - flat but with rotated land mask.
                                !     seamount - Gaussian bump for spontaneous motion test case.
                                !     dumbbell - Sloshing channel with reservoirs on both ends.
                                !     shelfwave - exponential slope for shelfwave test case.
                                !     Phillips - ACC-like idealized topography used in the Phillips config.
                                !     dense - Denmark Strait-like dense water formation and overflow.
                                !     USER - call a user modified routine.
SEAMOUNT_DELTA = 0.9            !   [non-dim] default = 0.5
                                ! Non-dimensional height of seamount.
SEAMOUNT_X_LENGTH_SCALE = 0.5   !   [Same as x,y] default = 20.0
                                ! Length scale of seamount in x-direction. Set to zero make topography uniform
                                ! in the x-direction.
SEAMOUNT_Y_LENGTH_SCALE = 0.5   !   [Same as x,y] default = 0.0
                                ! Length scale of seamount in y-direction. Set to zero make topography uniform
                                ! in the y-direction.
MAXIMUM_DEPTH = 4000.0          !   [m]
                                ! The maximum depth of the ocean.
MINIMUM_DEPTH = 1.0             !   [m] default = 0.0
                                ! If MASKING_DEPTH is unspecified, then anything shallower than MINIMUM_DEPTH is
                                ! assumed to be land and all fluxes are masked out. If MASKING_DEPTH is
                                ! specified, then all depths shallower than MINIMUM_DEPTH but deeper than
                                ! MASKING_DEPTH are rounded to MINIMUM_DEPTH.

! === module MOM_open_boundary ===
! Controls where open boundaries are located, what kind of boundary condition to impose, and what data to apply,
! if any.
OBC_NUMBER_OF_SEGMENTS = 36     ! default = 0
                                ! The number of open boundary segments.
OBC_ZERO_VORTICITY = False      !   [Boolean] default = False
                                ! If true, sets relative vorticity to zero on open boundaries.
OBC_FREESLIP_VORTICITY = False  !   [Boolean] default = True
                                ! If true, sets the normal gradient of tangential velocity to zero in the
                                ! relative vorticity on open boundaries. This cannot be true if another
                                ! OBC_XXX_VORTICITY option is True.
OBC_COMPUTED_VORTICITY = True   !   [Boolean] default = False
                                ! If true, uses the external values of tangential velocity in the relative
                                ! vorticity on open boundaries. This cannot be true if another OBC_XXX_VORTICITY
                                ! option is True.
OBC_SPECIFIED_VORTICITY = False !   [Boolean] default = False
                                ! If true, uses the external values of tangential velocity in the relative
                                ! vorticity on open boundaries. This cannot be true if another OBC_XXX_VORTICITY
                                ! option is True.
OBC_ZERO_STRAIN = False         !   [Boolean] default = False
                                ! If true, sets the strain used in the stress tensor to zero on open boundaries.
OBC_FREESLIP_STRAIN = False     !   [Boolean] default = True
                                ! If true, sets the normal gradient of tangential velocity to zero in the strain
                                ! use in the stress tensor on open boundaries. This cannot be true if another
                                ! OBC_XXX_STRAIN option is True.
OBC_COMPUTED_STRAIN = True      !   [Boolean] default = False
                                ! If true, sets the normal gradient of tangential velocity to zero in the strain
                                ! use in the stress tensor on open boundaries. This cannot be true if another
                                ! OBC_XXX_STRAIN option is True.
OBC_SPECIFIED_STRAIN = False    !   [Boolean] default = False
                                ! If true, sets the normal gradient of tangential velocity to zero in the strain
                                ! use in the stress tensor on open boundaries. This cannot be true if another
                                ! OBC_XXX_STRAIN option is True.
OBC_ZERO_BIHARMONIC = True      !   [Boolean] default = False
                                ! If true, zeros the Laplacian of flow on open boundaries in the biharmonic
                                ! viscosity term.
MASK_OUTSIDE_OBCS = True        !   [Boolean] default = False
                                ! If true, set the areas outside open boundaries to be land.
RAMP_OBCS = False               !   [Boolean] default = False
                                ! If true, ramps from zero to the external values over time, witha ramping
                                ! timescale given by RAMP_TIMESCALE. Ramping SSH only so far
OBC_RAMP_TIMESCALE = 1.0        !   [days] default = 1.0
                                ! If RAMP_OBCS is true, this sets the ramping timescale.
OBC_TIDE_N_CONSTITUENTS = 0     ! default = 0
                                ! Number of tidal constituents being added to the open boundary.
OBC_SEGMENT_001 = "I=0,J=40:32,FLATHER, OBLIQUE, OBLIQUE_TAN" !
                                ! Documentation needs to be dynamic?????
OBC_SEGMENT_002 = "J=32,I=1:0,FLATHER, OBLIQUE" !
                                ! Documentation needs to be dynamic?????
OBC_SEGMENT_003 = "I=1,J=32:24,FLATHER, OBLIQUE, OBLIQUE_TAN" !
                                ! Documentation needs to be dynamic?????
OBC_SEGMENT_004 = "J=24,I=1:2,FLATHER, OBLIQUE, OBLIQUE_TAN" !
                                ! Documentation needs to be dynamic?????
OBC_SEGMENT_005 = "I=2,J=24:16,FLATHER, OBLIQUE, OBLIQUE_TAN" !
                                ! Documentation needs to be dynamic?????
OBC_SEGMENT_006 = "J=16,I=2:3,FLATHER, OBLIQUE, OBLIQUE_TAN" !
                                ! Documentation needs to be dynamic?????
OBC_SEGMENT_007 = "I=3,J=16:8,FLATHER, OBLIQUE, OBLIQUE_TAN" !
                                ! Documentation needs to be dynamic?????
OBC_SEGMENT_008 = "J=8,I=3:4,FLATHER, OBLIQUE, OBLIQUE_TAN" !
                                ! Documentation needs to be dynamic?????
OBC_SEGMENT_009 = "I=4,J=8:0,FLATHER, OBLIQUE, OBLIQUE_TAN" !
                                ! Documentation needs to be dynamic?????
OBC_SEGMENT_010 = "J=0,I=4:12,FLATHER, OBLIQUE, OBLIQUE_TAN" !
                                ! Documentation needs to be dynamic?????
OBC_SEGMENT_011 = "I=12,J=0:1,FLATHER, OBLIQUE, OBLIQUE_TAN" !
                                ! Documentation needs to be dynamic?????
OBC_SEGMENT_012 = "J=1,I=12:20,FLATHER, OBLIQUE, OBLIQUE_TAN" !
                                ! Documentation needs to be dynamic?????
OBC_SEGMENT_013 = "I=20,J=1:2,FLATHER, OBLIQUE, OBLIQUE_TAN" !
                                ! Documentation needs to be dynamic?????
OBC_SEGMENT_014 = "J=2,I=20:28,FLATHER, OBLIQUE, OBLIQUE_TAN" !
                                ! Documentation needs to be dynamic?????
OBC_SEGMENT_015 = "I=28,J=2:3,FLATHER, OBLIQUE, OBLIQUE_TAN" !
                                ! Documentation needs to be dynamic?????
OBC_SEGMENT_016 = "J=3,I=28:36,FLATHER, OBLIQUE, OBLIQUE_TAN" !
                                ! Documentation needs to be dynamic?????
OBC_SEGMENT_017 = "I=36,J=3:4,FLATHER, OBLIQUE, OBLIQUE_TAN" !
                                ! Documentation needs to be dynamic?????
OBC_SEGMENT_018 = "J=4,I=36:44,FLATHER, OBLIQUE, OBLIQUE_TAN" !
                                ! Documentation needs to be dynamic?????
OBC_SEGMENT_019 = "I=44,J=4:12,FLATHER, OBLIQUE, OBLIQUE_TAN" !
                                ! Documentation needs to be dynamic?????
OBC_SEGMENT_020 = "J=12,I=44:43,FLATHER, OBLIQUE, OBLIQUE_TAN" !
                                ! Documentation needs to be dynamic?????
OBC_SEGMENT_021 = "I=43,J=12:20,FLATHER, OBLIQUE, OBLIQUE_TAN" !
                                ! Documentation needs to be dynamic?????
OBC_SEGMENT_022 = "J=20,I=43:42,FLATHER, OBLIQUE, OBLIQUE_TAN" !
                                ! Documentation needs to be dynamic?????
OBC_SEGMENT_023 = "I=42,J=20:28,FLATHER, OBLIQUE, OBLIQUE_TAN" !
                                ! Documentation needs to be dynamic?????
OBC_SEGMENT_024 = "J=28,I=42:41,FLATHER, OBLIQUE, OBLIQUE_TAN" !
                                ! Documentation needs to be dynamic?????
OBC_SEGMENT_025 = "I=41,J=28:36,FLATHER, OBLIQUE, OBLIQUE_TAN" !
                                ! Documentation needs to be dynamic?????
OBC_SEGMENT_026 = "J=36,I=41:40,FLATHER, OBLIQUE, OBLIQUE_TAN" !
                                ! Documentation needs to be dynamic?????
OBC_SEGMENT_027 = "I=40,J=36:44,FLATHER, OBLIQUE, OBLIQUE_TAN" !
                                ! Documentation needs to be dynamic?????
OBC_SEGMENT_028 = "J=44,I=40:32,FLATHER, OBLIQUE, OBLIQUE_TAN" !
                                ! Documentation needs to be dynamic?????
OBC_SEGMENT_029 = "I=32,J=44:43,FLATHER, OBLIQUE, OBLIQUE_TAN" !
                                ! Documentation needs to be dynamic?????
OBC_SEGMENT_030 = "J=43,I=32:24,FLATHER, OBLIQUE, OBLIQUE_TAN" !
                                ! Documentation needs to be dynamic?????
OBC_SEGMENT_031 = "I=24,J=43:42,FLATHER, OBLIQUE, OBLIQUE_TAN" !
                                ! Documentation needs to be dynamic?????
OBC_SEGMENT_032 = "J=42,I=24:16,FLATHER, OBLIQUE, OBLIQUE_TAN" !
                                ! Documentation needs to be dynamic?????