! Continuous isopycnal mode + initialization
USE_REGRIDDING = True
REGRIDDING_COORDINATE_MODE = "Z*"
INTERPOLATION_SCHEME = "PPM_IH4"
BOUNDARY_EXTRAPOLATION = True
REMAPPING_SCHEME = "PPM_IH4"
SPONGE = True
SPONGE_CONFIG = "DUMBBELL"
DUMBBELL_SPONGE_TIME_SCALE = 8.64e4
DUMBBELL_ROTATION = True
#override NIGLOBAL = 20
#override NJGLOBAL = 120
#override SOUTHLAT = -300.0
#override WESTLON = -50.0
#override LENLAT = 600.0
#override LENLON = 100.0
#override FIRST_DIRECTION = 1
#override DAYMAX = 30.
