/* This input file provides the adjustable run-time parameters for version 6 of
   the Modular Ocean Model (MOM6), a numerical ocean model developed at NOAA-GFDL.
   Where appropriate, parameters use usually given in MKS units.

   This particular file is for the example in tide_bay.

   This MOM_input file typically contains only the non-default values that are
   needed to reproduce this example.  A full list of parameters for this example
   can be found in the corresponding MOM_parameter_doc.all file which is
   generated by the model at run-time. */

!SYMMETRIC_MEMORY_ = True      !   [Boolean]
                                ! If defined, the velocity point data domain includes
                                ! every face of the thickness points. In other words,
                                ! some arrays are larger than others, depending on where
                                ! they are on the staggered grid.  Also, the starting
                                ! index of the velocity-point arrays is usually 0, not 1.
                                ! This can only be set at compile time.
!STATIC_MEMORY_ = False         !   [Boolean]
                                ! If STATIC_MEMORY_ is defined, the principle variables
                                ! will have sizes that are statically determined at
                                ! compile time.  Otherwise the sizes are not determined
                                ! until run time. The STATIC option is substantially
                                ! faster, but does not allow the PE count to be changed
                                ! at run time.  This can only be set at compile time.
NIHALO = 4                      ! default = 2
                                ! The number of halo points on each side in the
                                ! x-direction.  With STATIC_MEMORY_ this is set as NIHALO_
                                ! in MOM_memory.h at compile time; without STATIC_MEMORY_
                                ! the default is NIHALO_ in MOM_memory.h (if defined) or 2.
NJHALO = 4                      ! default = 2
                                ! The number of halo points on each side in the
                                ! y-direction.  With STATIC_MEMORY_ this is set as NJHALO_
                                ! in MOM_memory.h at compile time; without STATIC_MEMORY_
                                ! the default is NJHALO_ in MOM_memory.h (if defined) or 2.
NIGLOBAL = 102                  !
                                ! The total number of thickness grid points in the
                                ! x-direction in the physical domain. With STATIC_MEMORY_
                                ! this is set in MOM_memory.h at compile time.
NJGLOBAL = 42                   !
                                ! The total number of thickness grid points in the
                                ! y-direction in the physical domain. With STATIC_MEMORY_
                                ! this is set in MOM_memory.h at compile time.
!NIPROC = 12                    !
                                ! The number of processors in the x-direction. With
                                ! STATIC_MEMORY_ this is set in MOM_memory.h at compile time.
!NJPROC = 6                     !
                                ! The number of processors in the x-direction. With
                                ! STATIC_MEMORY_ this is set in MOM_memory.h at compile time.
!LAYOUT = 12, 6                 !
                                ! The processor layout that was actually used.
IO_LAYOUT = 1, 1                ! default = 0
                                ! The processor layout to be used, or 0,0 to automatically
                                ! set the io_layout to be the same as the layout.
REENTRANT_X = False             !   [Boolean] default = True
                                ! If true, the domain is zonally reentrant.

! === module MOM_open ===
OBC_NUMBER_OF_SEGMENTS = 1
OBC_SEGMENT_001 = "I=N,J=0:N,FLATHER"
OBC_USER_CONFIG = tidal_bay
USE_TIDAL_BAY_OBC = True        !   [Boolean] default = False
                                ! If true, use the tidal_bay open boundary.
TIDES = False                   !   [Boolean] default = False
                                ! If true, apply tidal momentum forcing.
OBC_ZERO_VORTICITY = False      !   [Boolean] default = False
                                ! If true, sets relative vorticity to zero on open boundaries.
OBC_FREESLIP_VORTICITY = True   !   [Boolean] default = False
                                ! If true, sets the normal gradient of tangential velocity to
                                ! zero in the relative vorticity on open boundaries. This cannot
                                ! be true if OBC_ZERO_VORTICITY is True.
OBC_ZERO_STRAIN = False         !   [Boolean] default = False
                                ! If true, sets the strain used in the stress tensor to zero on open boundaries.
OBC_FREESLIP_STRAIN = True      !   [Boolean] default = False
                                ! If true, sets the normal gradient of tangential velocity to
                                ! zero in the strain use in the stress tensor on open boundaries. This cannot
                                ! be true if OBC_ZERO_STRAIN is True.
OBC_ZERO_BIHARMONIC = True      !   [Boolean] default = False
                                ! If true, zeros the Laplacian of flow on open boundaries in the biharmonic
                                ! viscosity term.
! === module MOM_tidal_forcing ===
TIDE_M2 = False                  !   [Boolean] default = False
                                ! If true, apply tidal momentum forcing at the M2
                                ! frequency. This is only used if TIDES is true.
TIDE_SAL_SCALAR_VALUE = 0.094   !   [m m-1]
                                ! The constant of proportionality between sea surface
                                ! height (really it should be bottom pressure) anomalies
                                ! and bottom geopotential anomalies. This is only used if
                                ! TIDES and TIDE_USE_SAL_SCALAR are true.


! === module MOM_grid ===
! Parameters providing information about the vertical grid.
NK = 1                          !   [nondim]
                                ! The number of model layers.

! === module MOM_verticalGrid ===
! Parameters providing information about the vertical grid.

! === module MOM ===
ENABLE_THERMODYNAMICS = False   !   [Boolean] default = True
                                ! If true, Temperature and salinity are used as state
                                ! variables.
ADIABATIC = True                !   [Boolean] default = False
                                ! There are no diapycnal mass fluxes if ADIABATIC is
                                ! true. This assumes that KD = KDML = 0.0 and that
                                ! there is no buoyancy forcing, but makes the model
                                ! faster by eliminating subroutine calls.
DT = 300.0                      !   [s]
                                ! The (baroclinic) dynamics time step.  The time-step that
                                ! is actually used will be an integer fraction of the
                                ! forcing time-step (DT_FORCING in ocean-only mode or the
                                ! coupling timestep in coupled mode.)
DT_THERM = 3600.0               !   [s] default = 900.0
                                ! The thermodynamic and tracer advection time step.
                                ! Ideally DT_THERM should be an integer multiple of DT
                                ! and less than the forcing or coupling time-step.
                                ! By default DT_THERM is set to DT.
DTBT_RESET_PERIOD = -1.0        !   [s] default = 3600.0
                                ! The period between recalculations of DTBT (if DTBT <= 0).
                                ! If DTBT_RESET_PERIOD is negative, DTBT is set based
                                ! only on information available at initialization.  If
                                ! dynamic, DTBT will be set at least every forcing time
                                ! step, and if 0, every dynamics time step.  The default is
                                ! set by DT_THERM.  This is only used if SPLIT is true.
FRAZIL = False                  !   [Boolean] default = False
                                ! If true, water freezes if it gets too cold, and the
                                ! the accumulated heat deficit is returned in the
                                ! surface state.  FRAZIL is only used if
                                ! ENABLE_THERMODYNAMICS is true.
C_P = 3925.0                    !   [J kg-1 K-1] default = 3991.86795711963
                                ! The heat capacity of sea water, approximated as a
                                ! constant. This is only used if ENABLE_THERMODYNAMICS is
                                ! true. The default value is from the TEOS-10 definition
                                ! of conservative temperature.
SAVE_INITIAL_CONDS = False      !   [Boolean] default = False
                                ! If true, write the initial conditions to a file given
                                ! by IC_OUTPUT_FILE.
IC_OUTPUT_FILE = "GOLD_IC"      ! default = "MOM_IC"
                                ! The file into which to write the initial conditions.

! === module MOM_tracer_registry ===

ROTATION = "betaplane"       ! default = "2omegasinlat"
                                ! This specifies how the Coriolis parameter is specified:
                                !     2omegasinlat - Use twice the planetary rotation rate
                                !       times the sine of latitude.
                                !     betaplane - Use a beta-plane or f-plane.
                                !     USER - call a user modified routine.
F_0 = 1.E-4
BETA = 0.0

! === module MOM_tracer_flow_control ===
INPUTDIR = "INPUT"              ! default = "."
                                ! The directory in which input files are found.
COORD_CONFIG = "linear"         !
                                ! This specifies how layers are to be defined:
                                !     file - read coordinate information from the file
                                !       specified by (COORD_FILE).
                                !     linear - linear based on interfaces not layers.
                                !     ts_ref - use reference temperature and salinity
                                !     ts_range - use range of temperature and salinity
                                !       (T_REF and S_REF) to determine surface density
                                !       and GINT calculate internal densities.
                                !     gprime - use reference density (RHO_0) for surface
                                !       density and GINT calculate internal densities.
                                !     ts_profile - use temperature and salinity profiles
                                !       (read from COORD_FILE) to set layer densities.
                                !     USER - call a user modified routine.

! === module MOM_grid_init ===
GRID_CONFIG = "cartesian"       !
                                ! A character string that determines the method for
                                ! defining the horizontal grid.  Current options are:
                                !     mosaic - read the grid from a mosaic (supergrid)
                                !              file set by GRID_FILE.
                                !     cartesian - use a (flat) Cartesian grid.
                                !     spherical - use a simple spherical grid.
                                !     mercator - use a Mercator spherical grid.
AXIS_UNITS = "k"                ! default = "degrees"
                                ! The units for the Cartesian axes. Valid entries are:
                                !     degrees - degrees of latitude and longitude
                                !     m - meters
                                !     k - kilometers
SOUTHLAT = 0.0                  !   [k]
                                ! The southern latitude of the domain.
LENLAT = 84.0                   !   [k]
                                ! The latitudinal length of the domain.
LENLON = 204.0                  !   [k]
                                ! The longitudinal length of the domain.
TOPO_CONFIG = "flat"            !
                                ! This specifies how bathymetry is specified:
                                !     file - read bathymetric information from the file
                                !       specified by (TOPO_FILE).
                                !     flat - flat bottom set to MAXIMUM_DEPTH.
                                !     bowl - an analytically specified bowl-shaped basin
                                !       ranging between MAXIMUM_DEPTH and MINIMUM_DEPTH.
                                !     spoon - a similar shape to 'bowl', but with an vertical
                                !       wall at the southern face.
                                !     halfpipe - a zonally uniform channel with a half-sine
                                !       profile in the meridional direction.
                                !     benchmark - use the benchmark test case topography.
                                !     DOME - use a slope and channel configuration for the
                                !       DOME sill-overflow test case.
                                !     DOME2D - use a shelf and slope configuration for the
                                !       DOME2D gravity current/overflow test case.
                                !     seamount - Gaussian bump for spontaneous motion test case.
                                !     USER - call a user modified routine.

! === module benchmark_initialize_topography ===
MINIMUM_DEPTH = 1.0             !   [m] default = 0.0
                                ! The minimum depth of the ocean.
MAXIMUM_DEPTH = 35.0            !   [m]
                                ! The maximum depth of the ocean.
THICKNESS_CONFIG = "uniform"    !
                                ! A string that determines how the initial layer
                                ! thicknesses are specified for a new run:
                                !     file - read interface heights from the file specified
                                !     thickness_file - read thicknesses from the file specified
                                !       by (THICKNESS_FILE).
                                !     uniform - uniform thickness layers evenly distributed
                                !       between the surface and MAXIMUM_DEPTH.
                                !     DOME - use a slope and channel configuration for the
                                !       DOME sill-overflow test case.
                                !     benchmark - use the benchmark test case thicknesses.
                                !     search - search a density profile for the interface
                                !       densities. This is not yet implemented.
                                !     circle_obcs - the circle_obcs test case is used.
                                !     DOME2D - 2D version of DOME initialization.
                                !     adjustment2d - TBD AJA.
                                !     sloshing - TBD AJA.
                                !     seamount - TBD AJA.
                                !     USER - call a user modified routine.

! === module MOM_MEKE ===

! === module MOM_lateral_mixing_coeffs ===
ETA_TOLERANCE = 1.0E-06         !   [m] default = 1.1E-09
                                ! The tolerance for the differences between the
                                ! barotropic and baroclinic estimates of the sea surface
                                ! height due to the fluxes through each face.  The total
                                ! tolerance for SSH is 4 times this value.  The default
                                ! is 0.5*NK*ANGSTROM, and this should not be set less x
                                ! than about 10^-15*MAXIMUM_DEPTH.
VELOCITY_TOLERANCE = 0.001      !   [m s-1] default = 3.0E+08
                                ! The tolerance for barotropic velocity discrepancies
                                ! between the barotropic solution and  the sum of the
                                ! layer thicknesses.
BOUND_CORIOLIS = True           !   [Boolean] default = False
                                ! If true, the Coriolis terms at u-points are bounded by
                                ! the four estimates of (f+rv)v from the four neighboring
                                ! v-points, and similarly at v-points.  This option would
                                ! have no effect on the SADOURNY Coriolis scheme if it
                                ! were possible to use centered difference thickness fluxes.

! === module MOM_hor_visc ===
LAPLACIAN = True                !   [Boolean] default = False
                                ! If true, use a Laplacian horizontal viscosity.
BIHARMONIC = True               !   [Boolean] default = True
                                ! If true, se a biharmonic horizontal viscosity.
                                ! BIHARMONIC may be used with LAPLACIAN.
KH = 0.0E+02                    !   [m2 s-1] default = 0.0
                                ! The background Laplacian horizontal viscosity.
KH_VEL_SCALE = 0.003            !   [m s-1] default = 0.0
                                ! The velocity scale which is multiplied by the grid
                                ! spacing to calculate the Laplacian viscosity.
                                ! The final viscosity is the largest of this scaled
                                ! viscosity, the Smagorinsky viscosity and KH.
SMAGORINSKY_KH = True           !   [Boolean] default = False
                                ! If true, use a Smagorinsky nonlinear eddy viscosity.
SMAG_LAP_CONST = 0.15           !   [nondim] default = 0.0
                                ! The nondimensional Laplacian Smagorinsky constant,
                                ! often 0.15.
SMAGORINSKY_AH = True
SMAG_BI_CONST = 0.6

! === module MOM_vert_friction ===
DIRECT_STRESS = True            !   [Boolean] default = False
                                ! If true, the wind stress is distributed over the
                                ! topmost HMIX_STRESS of fluid (like in HYCOM), and KVML
                                ! may be set to a very small value.
HARMONIC_VISC = True            !   [Boolean] default = False
                                ! If true, use the harmonic mean thicknesses for
                                ! calculating the vertical viscosity.
HMIX_FIXED = 20.0               !   [m]
                                ! The prescribed depth over which the near-surface
                                ! viscosity and diffusivity are elevated when the bulk
                                ! mixed layer is not used.
KV = 1.0E-04                    !   [m2 s-1]
                                ! The background kinematic viscosity in the interior.
                                ! The molecular value, ~1e-6 m2 s-1, may be used.
KVML = 0.01                     !   [m2 s-1] default = 1.0E-04
                                ! The kinematic viscosity in the mixed layer.  A typical
                                ! value is ~1e-2 m2 s-1. KVML is not used if
                                ! BULKMIXEDLAYER is true.  The default is set by KV.
HBBL = 10.0                     !   [m]
                                ! The thickness of a bottom boundary layer with a
                                ! viscosity of KVBBL if BOTTOMDRAGLAW is not defined, or
                                ! the thickness over which near-bottom velocities are
                                ! averaged for the drag law if BOTTOMDRAGLAW is defined
                                ! but LINEAR_DRAG is not.
MAXVEL = 10.0                   !   [m s-1] default = 3.0E+08
                                ! The maximum velocity allowed before the velocity
                                ! components are truncated.

! === module MOM_set_visc ===
LINEAR_DRAG = True              !   [Boolean] default = False
                                ! If LINEAR_DRAG and BOTTOMDRAGLAW are defined the drag
                                ! law is cdrag*DRAG_BG_VEL*u.
CDRAG = 0.0003                  !   [nondim] default = 0.003
                                ! CDRAG is the drag coefficient relating the magnitude of
                                ! the velocity field to the bottom stress. CDRAG is only
                                ! used if BOTTOMDRAGLAW is defined.
DRAG_BG_VEL = 1.0               !   [m s-1] default = 0.0
                                ! DRAG_BG_VEL is either the assumed bottom velocity (with
                                ! LINEAR_DRAG) or an unresolved  velocity that is
                                ! combined with the resolved velocity to estimate the
                                ! velocity magnitude.  DRAG_BG_VEL is only used when
                                ! BOTTOMDRAGLAW is defined.
BBL_THICK_MIN = 0.1             !   [m] default = 0.0
                                ! The minimum bottom boundary layer thickness that can be
                                ! used with BOTTOMDRAGLAW. This might be
                                ! Kv / (cdrag * drag_bg_vel) to give Kv as the minimum
                                ! near-bottom viscosity.

! === module MOM_barotropic ===
BOUND_BT_CORRECTION = True      !   [Boolean] default = False
                                ! If true, the corrective pseudo mass-fluxes into the
                                ! barotropic solver are limited to values that require
                                ! less than 0.1*MAXVEL to be accommodated.
BT_PROJECT_VELOCITY = True      !   [Boolean] default = False
                                ! If true, step the barotropic velocity first and project
                                ! out the velocity tendancy by 1+BEBT when calculating the
                                ! transport.  The default (false) is to use a predictor
                                ! continuity step to find the pressure field, and then
                                ! to do a corrector continuity step using a weighted
                                ! average of the old and new velocities, with weights
                                ! of (1-BEBT) and BEBT.
BT_THICK_SCHEME = "FROM_BT_CONT" ! default = "HYBRID"
                                ! A string describing the scheme that is used to set the
                                ! open face areas used for barotropic transport and the
                                ! relative weights of the accelerations. Valid values are:
                                !    ARITHMETIC - arithmetic mean layer thicknesses
                                !    HARMONIC - harmonic mean layer thicknesses
                                !    HYBRID (the default) - use arithmetic means for
                                !       layers above the shallowest bottom, the harmonic
                                !       mean for layers below, and a weighted average for
                                !       layers that straddle that depth
                                !    FROM_BT_CONT - use the average thicknesses kept
                                !       in the h_u and h_v fields of the BT_cont_type
BEBT = 0.2                      !   [nondim] default = 0.1
                                ! BEBT determines whether the barotropic time stepping
                                ! uses the forward-backward time-stepping scheme or a
                                ! backward Euler scheme. BEBT is valid in the range from
                                ! 0 (for a forward-backward treatment of nonrotating
                                ! gravity waves) to 1 (for a backward Euler treatment).
                                ! In practice, BEBT must be greater than about 0.05.
DTBT = -0.9                     !   [s or nondim] default = -0.98
                                ! The barotropic time step, in s. DTBT is only used with
                                ! the split explicit time stepping. To set the time step
                                ! automatically based the maximum stable value use 0, or
                                ! a negative value gives the fraction of the stable value.
                                ! Setting DTBT to 0 is the same as setting it to -0.98.
                                ! The value of DTBT that will actually be used is an
                                ! integer fraction of DT, rounding down.

! === module MOM_thickness_diffuse ===

! === module MOM_diabatic_driver ===
! The following parameters are used for diabatic processes.

! === module MOM_tracer_advect ===

! === module MOM_tracer_hor_diff ===

! === module MOM_surface_forcing ===
VARIABLE_WINDS = False          !   [Boolean] default = True
                                ! If true, the winds vary in time after the initialization.
VARIABLE_BUOYFORCE = False      !   [Boolean] default = True
                                ! If true, the buoyancy forcing varies in time after the
                                ! initialization of the model.
BUOY_CONFIG = "zero"           !
                                ! The character string that indicates how buoyancy forcing
                                ! is specified. Valid options include (file), (zero),
                                ! (linear), (USER), and (NONE).
WIND_CONFIG = "zero"            !
                                ! The character string that indicates how wind forcing
                                ! is specified. Valid options include (file), (2gyre),
                                ! (1gyre), (gyres), (zero), and (USER).

! === module MOM_sum_output ===
READ_DEPTH_LIST = True          !   [Boolean] default = False
                                ! Read the depth list from a file if it exists or
                                ! create that file otherwise.
DEPTH_LIST_MIN_INC = 1.0E-06    !   [m] default = 1.0E-10
                                ! The minimum increment between the depths of the
                                ! entries in the depth-list file.
DATE_STAMPED_STDOUT = False     !   [Boolean] default = True
                                ! If true, use dates (not times) in messages to stdout

! === module MOM_main (MOM_driver) ===
!DT_FORCING = 3600.0             !   [s] default = 900.0
                                ! The time step for changing forcing, coupling with other
                                ! components, or potentially writing certain diagnostics.
                                ! The default value is given by DT.
DAYMAX = 3.00                   !   [days]
                                ! The final time of the whole simulation, in units of
                                ! TIMEUNIT seconds.  This also sets the potential end
                                ! time of the present run segment if the end time is
                                ! not set (as it was here) via ocean_solo_nml in input.nml.
RESTART_CONTROL = 1             ! default = 1
                                ! An integer whose bits encode which restart files are
                                ! written. Add 2 (bit 1) for a time-stamped file, and odd
                                ! (bit 0) for a non-time-stamped file. A non-time-stamped
                                ! restart file is saved at the end of the run segment
                                ! for any non-negative value.
RESTINT = 365.0                 !   [days] default = 0.0
                                ! The interval between saves of the restart file in units
                                ! of TIMEUNIT.  Use 0 (the default) to not save
                                ! incremental restart files at all.
ENERGYSAVEDAYS = 0.25           !   [days] default = 3600.0
                                ! The interval in units of TIMEUNIT between saves of the
                                ! energies of the run and other globally summed diagnostics.
! === module MOM_diag_mediator ===
NUM_DIAG_COORDS = 0             ! default = 1
                                ! The number of diagnostic vertical coordinates to use.
                                ! For each coordinate, an entry in DIAG_COORDS must be provided.
