 &MOM_input_nml
         output_directory = './',
         input_filename = 'n'
         restart_input_dir = 'INPUT/',
         restart_output_dir = 'RESTART/',
         parameter_filename = 'MOM_input',
                              'MOM_override' /

 &ocean_solo_nml
 /

 &diag_manager_nml
        flush_nc_files = .true.
 /

 &fms_nml
        clock_grain='ROUTINE'
        clock_flags='SYNC'
        domains_stack_size = 955296
        stack_size =0 /
