! Blank file in which we can put "overrides" for parameters
!! #override DAYMAX = 48000.0                !   [s]
CHANNEL_FLOW_FREQUENCY = 1.e-4
#override NUM_DYE_TRACERS = 3             ! default = 0
SUPERCRITICAL_ZONAL_FLOW = 1.0            !   [m s-1]
