! Continuous isopycnal mode + initialization
USE_REGRIDDING = True
REGRIDDING_COORDINATE_MODE = "Z*"
INTERPOLATION_SCHEME = "PPM_IH4"
BOUNDARY_EXTRAPOLATION = True
REMAPPING_SCHEME = "PPM_IH4"
SPONGE = False
SPONGE_CONFIG = "DUMBBELL"
DUMBBELL_SPONGE_TIME_SCALE = 8.64e4

#override DAYMAX = 30.
#override WESTLON = -100
#override LENLON = 200
#override NIGLOBAL = 40
#override DUMBBELL_S_RANGE = 0.0
! === OBC options ===
OBC_NUMBER_OF_SEGMENTS = 2      ! [Integer] The number of open boundary segments.
OBC_SEGMENT_001 = "I=0,J=N:0,FLATHER,OBLIQUE,NUDGED"
OBC_SEGMENT_002 = "I=N,J=0:N,FLATHER,OBLIQUE,NUDGED"
OBC_SEGMENT_001_DATA = "U=file:west.nc(u),V=file:west.nc(v),SSH=file:west.nc(zeta),SALT=file:west.nc(salt)"
OBC_SEGMENT_002_DATA = "U=file:east.nc(u),V=file:east.nc(v),SSH=file:east.nc(zeta),SALT=file:east.nc(salt)"
OBC_SEGMENT_001_VELOCITY_NUDGING_TIMESCALES = 2, 200
OBC_SEGMENT_002_VELOCITY_NUDGING_TIMESCALES = 2, 200
OBC_TRACER_RESERVOIR_LENGTH_SCALE_OUT = 5000
OBC_TRACER_RESERVOIR_LENGTH_SCALE_IN = 5000
OBC_ZERO_VORTICITY = False      !   [Boolean] default = False
                                ! If true, sets relative vorticity to zero on open boundaries.
OBC_FREESLIP_VORTICITY = True   !   [Boolean] default = False
                                ! If true, sets the normal gradient of tangential velocity to
                                ! zero in the relative vorticity on open boundaries. This cannot
                                ! be true if OBC_ZERO_VORTICITY is True.
OBC_ZERO_STRAIN = False         !   [Boolean] default = False
                                ! If true, sets the strain used in the stress tensor to zero on open boundaries.
OBC_FREESLIP_STRAIN = True      !   [Boolean] default = False
                                ! If true, sets the normal gradient of tangential velocity to
                                ! zero in the strain use in the stress tensor on open boundaries. This cannot
                                ! be true if OBC_ZERO_STRAIN is True.
OBC_ZERO_BIHARMONIC = True      !   [Boolean] default = False
                                ! If true, zeros the Laplacian of flow on open boundaries in the biharmonic
                                ! viscosity term.
